<?xml version="1.0" encoding="UTF-8"?>

<!-- generated on 2023-12-12 08:27:32 by Eclipse SUMO netedit Version 1.19.0
<configuration xmlns:xsi="http://www.w3.org/2001/XMLSchema-instance" xsi:noNamespaceSchemaLocation="http://sumo.dlr.de/xsd/neteditConfiguration.xsd">

    <input>
        <sumocfg-file value="H:\Learning\SUMO Simulator\SUMO_Projects\HelloWorld\Configuration.sumocfg"/>
        <route-files value="H:\Learning\SUMO Simulator\SUMO_Projects\HelloWorld\Routes.rou.xml"/>
        <sumo-net-file value="H:\Learning\SUMO Simulator\SUMO_Projects\HelloWorld\Network.net.xml"/>
    </input>

    <output>
        <output-file value="H:\Learning\SUMO Simulator\SUMO_Projects\HelloWorld\Network.net.xml"/>
    </output>

    <processing>
        <offset.disable-normalization value="true"/>
    </processing>

    <junctions>
        <no-turnarounds value="true"/>
    </junctions>

    <netedit>
        <new-network value="false"/>
    </netedit>

</configuration>
-->

<net version="1.16" junctionCornerDetail="5" limitTurnSpeed="5.50" xmlns:xsi="http://www.w3.org/2001/XMLSchema-instance" xsi:noNamespaceSchemaLocation="http://sumo.dlr.de/xsd/net_file.xsd">

    <location netOffset="0.00,0.00" convBoundary="0.00,100.00,300.00,100.00" origBoundary="10000000000.00,10000000000.00,-10000000000.00,-10000000000.00" projParameter="!"/>

    <edge id=":J2_0" function="internal">
        <lane id=":J2_0_0" index="0" speed="13.89" length="0.10" shape="100.00,98.40 100.00,98.40"/>
    </edge>
    <edge id=":J3_0" function="internal">
        <lane id=":J3_0_0" index="0" speed="13.89" length="0.10" shape="200.00,98.40 200.00,98.40"/>
    </edge>

    <edge id="E0" from="J1" to="J2" priority="-1">
        <lane id="E0_0" index="0" speed="13.89" length="100.00" shape="0.00,98.40 100.00,98.40"/>
    </edge>
    <edge id="E1" from="J2" to="J3" priority="-1">
        <lane id="E1_0" index="0" speed="13.89" length="100.00" shape="100.00,98.40 200.00,98.40"/>
    </edge>
    <edge id="E2" from="J3" to="J4" priority="-1">
        <lane id="E2_0" index="0" speed="13.89" length="100.00" shape="200.00,98.40 300.00,98.40"/>
    </edge>

    <junction id="J1" type="dead_end" x="0.00" y="100.00" incLanes="" intLanes="" shape="0.00,100.00 0.00,96.80"/>
    <junction id="J2" type="priority" x="100.00" y="100.00" incLanes="E0_0" intLanes=":J2_0_0" shape="100.00,100.00 100.00,96.80 100.00,100.00">
        <request index="0" response="0" foes="0" cont="0"/>
    </junction>
    <junction id="J3" type="priority" x="200.00" y="100.00" incLanes="E1_0" intLanes=":J3_0_0" shape="200.00,100.00 200.00,96.80 200.00,100.00">
        <request index="0" response="0" foes="0" cont="0"/>
    </junction>
    <junction id="J4" type="dead_end" x="300.00" y="100.00" incLanes="E2_0" intLanes="" shape="300.00,96.80 300.00,100.00"/>

    <connection from="E0" to="E1" fromLane="0" toLane="0" via=":J2_0_0" dir="s" state="M"/>
    <connection from="E1" to="E2" fromLane="0" toLane="0" via=":J3_0_0" dir="s" state="M"/>

    <connection from=":J2_0" to="E1" fromLane="0" toLane="0" dir="s" state="M"/>
    <connection from=":J3_0" to="E2" fromLane="0" toLane="0" dir="s" state="M"/>

</net>
