<?xml version="1.0" encoding="UTF-8"?>

<!-- generated on 2023-12-12 08:26:43 by Eclipse SUMO netedit Version 1.19.0
-->

<routes xmlns:xsi="http://www.w3.org/2001/XMLSchema-instance" xsi:noNamespaceSchemaLocation="http://sumo.dlr.de/xsd/routes_file.xsd">
    <!-- Routes -->
    <route id="r_0" edges="E0 E1 E2"/>
    <!-- Vehicles, persons and containers (sorted by depart) -->
    <trip id="t_0" depart="0.00" from="E0" to="E0"/>
    <trip id="t_1" type="DEFAULT_TAXITYPE" depart="10.00" fromJunction="J1" toJunction="J4"/>
</routes>
