<?xml version="1.0" encoding="UTF-8"?>

<!-- generated on 2023-12-15 15:16:21 by Eclipse SUMO netedit Version 1.19.0
<configuration xmlns:xsi="http://www.w3.org/2001/XMLSchema-instance" xsi:noNamespaceSchemaLocation="http://sumo.dlr.de/xsd/neteditConfiguration.xsd">

    <input>
        <sumo-net-file value="C:\Users\kriehl\Desktop\Intersection\Network_Manhattan_No_Lights.net.xml"/>
    </input>

    <output>
        <output-file value="C:\Users\kriehl\Desktop\Intersection\Network_Manhattan_No_Lights.net.xml"/>
    </output>

    <processing>
        <geometry.min-radius.fix.railways value="false"/>
        <geometry.max-grade.fix value="false"/>
        <offset.disable-normalization value="true"/>
        <lefthand value="0"/>
    </processing>

    <junctions>
        <no-turnarounds value="true"/>
        <junctions.corner-detail value="5"/>
        <junctions.limit-turn-speed value="5.50"/>
        <rectangular-lane-cut value="0"/>
    </junctions>

    <pedestrian>
        <walkingareas value="0"/>
    </pedestrian>

</configuration>
-->

<net version="1.16" junctionCornerDetail="5" limitTurnSpeed="5.50" xmlns:xsi="http://www.w3.org/2001/XMLSchema-instance" xsi:noNamespaceSchemaLocation="http://sumo.dlr.de/xsd/net_file.xsd">

    <location netOffset="0.00,0.00" convBoundary="-1100.00,0.00,-100.00,1000.00" origBoundary="-10000000000.00,-10000000000.00,10000000000.00,10000000000.00" projParameter="!"/>

    <edge id=":J1_0" function="internal">
        <lane id=":J1_0_0" index="0" speed="13.89" length="0.10" shape="-900.00,701.60 -900.00,701.60"/>
    </edge>
    <edge id=":J1_1" function="internal">
        <lane id=":J1_1_0" index="0" speed="13.89" length="0.10" shape="-900.00,698.40 -900.00,698.40"/>
    </edge>
    <edge id=":J13_0" function="internal">
        <lane id=":J13_0_0" index="0" speed="13.89" length="0.10" shape="-801.60,800.00 -801.60,800.00"/>
    </edge>
    <edge id=":J13_1" function="internal">
        <lane id=":J13_1_0" index="0" speed="13.89" length="0.10" shape="-798.40,800.00 -798.40,800.00"/>
    </edge>
    <edge id=":J15_0" function="internal">
        <lane id=":J15_0_0" index="0" speed="13.89" length="0.10" shape="-701.60,800.00 -701.60,800.00"/>
    </edge>
    <edge id=":J15_1" function="internal">
        <lane id=":J15_1_0" index="0" speed="13.89" length="0.10" shape="-698.40,800.00 -698.40,800.00"/>
    </edge>
    <edge id=":J17_0" function="internal">
        <lane id=":J17_0_0" index="0" speed="13.89" length="0.10" shape="-601.60,800.00 -601.60,800.00"/>
    </edge>
    <edge id=":J17_1" function="internal">
        <lane id=":J17_1_0" index="0" speed="13.89" length="0.10" shape="-598.40,800.00 -598.40,800.00"/>
    </edge>
    <edge id=":J19_0" function="internal">
        <lane id=":J19_0_0" index="0" speed="13.89" length="0.10" shape="-501.60,800.00 -501.60,800.00"/>
    </edge>
    <edge id=":J19_1" function="internal">
        <lane id=":J19_1_0" index="0" speed="13.89" length="0.10" shape="-498.40,800.00 -498.40,800.00"/>
    </edge>
    <edge id=":J21_0" function="internal">
        <lane id=":J21_0_0" index="0" speed="13.89" length="0.10" shape="-401.60,800.00 -401.60,800.00"/>
    </edge>
    <edge id=":J21_1" function="internal">
        <lane id=":J21_1_0" index="0" speed="13.89" length="0.10" shape="-398.40,800.00 -398.40,800.00"/>
    </edge>
    <edge id=":J22_0" function="internal">
        <lane id=":J22_0_0" index="0" speed="13.89" length="0.10" shape="-300.00,701.60 -300.00,701.60"/>
    </edge>
    <edge id=":J22_1" function="internal">
        <lane id=":J22_1_0" index="0" speed="13.89" length="0.10" shape="-300.00,698.40 -300.00,698.40"/>
    </edge>
    <edge id=":J24_0" function="internal">
        <lane id=":J24_0_0" index="0" speed="13.89" length="0.10" shape="-300.00,601.60 -300.00,601.60"/>
    </edge>
    <edge id=":J24_1" function="internal">
        <lane id=":J24_1_0" index="0" speed="13.89" length="0.10" shape="-300.00,598.40 -300.00,598.40"/>
    </edge>
    <edge id=":J26_0" function="internal">
        <lane id=":J26_0_0" index="0" speed="13.89" length="0.10" shape="-300.00,501.60 -300.00,501.60"/>
    </edge>
    <edge id=":J26_1" function="internal">
        <lane id=":J26_1_0" index="0" speed="13.89" length="0.10" shape="-300.00,498.40 -300.00,498.40"/>
    </edge>
    <edge id=":J28_0" function="internal">
        <lane id=":J28_0_0" index="0" speed="13.89" length="0.10" shape="-300.00,401.60 -300.00,401.60"/>
    </edge>
    <edge id=":J28_1" function="internal">
        <lane id=":J28_1_0" index="0" speed="13.89" length="0.10" shape="-300.00,398.40 -300.00,398.40"/>
    </edge>
    <edge id=":J3_0" function="internal">
        <lane id=":J3_0_0" index="0" speed="13.89" length="0.10" shape="-900.00,601.60 -900.00,601.60"/>
    </edge>
    <edge id=":J3_1" function="internal">
        <lane id=":J3_1_0" index="0" speed="13.89" length="0.10" shape="-900.00,598.40 -900.00,598.40"/>
    </edge>
    <edge id=":J30_0" function="internal">
        <lane id=":J30_0_0" index="0" speed="13.89" length="0.10" shape="-300.00,301.60 -300.00,301.60"/>
    </edge>
    <edge id=":J30_1" function="internal">
        <lane id=":J30_1_0" index="0" speed="13.89" length="0.10" shape="-300.00,298.40 -300.00,298.40"/>
    </edge>
    <edge id=":J32_0" function="internal">
        <lane id=":J32_0_0" index="0" speed="13.89" length="0.10" shape="-801.60,200.00 -801.60,200.00"/>
    </edge>
    <edge id=":J32_1" function="internal">
        <lane id=":J32_1_0" index="0" speed="13.89" length="0.10" shape="-798.40,200.00 -798.40,200.00"/>
    </edge>
    <edge id=":J34_0" function="internal">
        <lane id=":J34_0_0" index="0" speed="13.89" length="0.10" shape="-701.60,200.00 -701.60,200.00"/>
    </edge>
    <edge id=":J34_1" function="internal">
        <lane id=":J34_1_0" index="0" speed="13.89" length="0.10" shape="-698.40,200.00 -698.40,200.00"/>
    </edge>
    <edge id=":J36_0" function="internal">
        <lane id=":J36_0_0" index="0" speed="13.89" length="0.10" shape="-601.60,200.00 -601.60,200.00"/>
    </edge>
    <edge id=":J36_1" function="internal">
        <lane id=":J36_1_0" index="0" speed="13.89" length="0.10" shape="-598.40,200.00 -598.40,200.00"/>
    </edge>
    <edge id=":J38_0" function="internal">
        <lane id=":J38_0_0" index="0" speed="13.89" length="0.10" shape="-501.60,200.00 -501.60,200.00"/>
    </edge>
    <edge id=":J38_1" function="internal">
        <lane id=":J38_1_0" index="0" speed="13.89" length="0.10" shape="-498.40,200.00 -498.40,200.00"/>
    </edge>
    <edge id=":J40_0" function="internal">
        <lane id=":J40_0_0" index="0" speed="13.89" length="0.10" shape="-401.60,200.00 -401.60,200.00"/>
    </edge>
    <edge id=":J40_1" function="internal">
        <lane id=":J40_1_0" index="0" speed="13.89" length="0.10" shape="-398.40,200.00 -398.40,200.00"/>
    </edge>
    <edge id=":J42_0" function="internal">
        <lane id=":J42_0_0" index="0" speed="6.51" length="9.03" shape="-801.60,707.20 -801.95,704.75 -803.00,703.00 -804.75,701.95 -807.20,701.60"/>
    </edge>
    <edge id=":J42_1" function="internal">
        <lane id=":J42_1_0" index="0" speed="13.89" length="14.40" shape="-801.60,707.20 -801.60,692.80"/>
    </edge>
    <edge id=":J42_2" function="internal">
        <lane id=":J42_2_0" index="0" speed="8.00" length="14.19" shape="-801.60,707.20 -801.05,703.35 -799.40,700.60 -796.65,698.95 -792.80,698.40"/>
    </edge>
    <edge id=":J42_3" function="internal">
        <lane id=":J42_3_0" index="0" speed="6.51" length="9.03" shape="-792.80,701.60 -795.25,701.95 -797.00,703.00 -798.05,704.75 -798.40,707.20"/>
    </edge>
    <edge id=":J42_4" function="internal">
        <lane id=":J42_4_0" index="0" speed="13.89" length="14.40" shape="-792.80,701.60 -807.20,701.60"/>
    </edge>
    <edge id=":J42_5" function="internal">
        <lane id=":J42_5_0" index="0" speed="8.00" length="4.07" shape="-792.80,701.60 -796.65,701.05 -796.80,700.96"/>
    </edge>
    <edge id=":J42_12" function="internal">
        <lane id=":J42_12_0" index="0" speed="8.00" length="10.13" shape="-796.80,700.96 -799.40,699.40 -801.05,696.65 -801.60,692.80"/>
    </edge>
    <edge id=":J42_6" function="internal">
        <lane id=":J42_6_0" index="0" speed="6.51" length="9.03" shape="-798.40,692.80 -798.05,695.25 -797.00,697.00 -795.25,698.05 -792.80,698.40"/>
    </edge>
    <edge id=":J42_7" function="internal">
        <lane id=":J42_7_0" index="0" speed="13.89" length="14.40" shape="-798.40,692.80 -798.40,707.20"/>
    </edge>
    <edge id=":J42_8" function="internal">
        <lane id=":J42_8_0" index="0" speed="8.00" length="14.19" shape="-798.40,692.80 -798.95,696.65 -800.60,699.40 -803.35,701.05 -807.20,701.60"/>
    </edge>
    <edge id=":J42_9" function="internal">
        <lane id=":J42_9_0" index="0" speed="6.51" length="9.03" shape="-807.20,698.40 -804.75,698.05 -803.00,697.00 -801.95,695.25 -801.60,692.80"/>
    </edge>
    <edge id=":J42_10" function="internal">
        <lane id=":J42_10_0" index="0" speed="13.89" length="14.40" shape="-807.20,698.40 -792.80,698.40"/>
    </edge>
    <edge id=":J42_11" function="internal">
        <lane id=":J42_11_0" index="0" speed="8.00" length="4.07" shape="-807.20,698.40 -803.35,698.95 -803.20,699.04"/>
    </edge>
    <edge id=":J42_13" function="internal">
        <lane id=":J42_13_0" index="0" speed="8.00" length="10.13" shape="-803.20,699.04 -800.60,700.60 -798.95,703.35 -798.40,707.20"/>
    </edge>
    <edge id=":J43_0" function="internal">
        <lane id=":J43_0_0" index="0" speed="6.51" length="9.03" shape="-701.60,707.20 -701.95,704.75 -703.00,703.00 -704.75,701.95 -707.20,701.60"/>
    </edge>
    <edge id=":J43_1" function="internal">
        <lane id=":J43_1_0" index="0" speed="13.89" length="14.40" shape="-701.60,707.20 -701.60,692.80"/>
    </edge>
    <edge id=":J43_2" function="internal">
        <lane id=":J43_2_0" index="0" speed="8.00" length="4.07" shape="-701.60,707.20 -701.05,703.35 -700.96,703.20"/>
    </edge>
    <edge id=":J43_12" function="internal">
        <lane id=":J43_12_0" index="0" speed="8.00" length="10.13" shape="-700.96,703.20 -699.40,700.60 -696.65,698.95 -692.80,698.40"/>
    </edge>
    <edge id=":J43_3" function="internal">
        <lane id=":J43_3_0" index="0" speed="6.51" length="9.03" shape="-692.80,701.60 -695.25,701.95 -697.00,703.00 -698.05,704.75 -698.40,707.20"/>
    </edge>
    <edge id=":J43_4" function="internal">
        <lane id=":J43_4_0" index="0" speed="13.89" length="14.40" shape="-692.80,701.60 -707.20,701.60"/>
    </edge>
    <edge id=":J43_5" function="internal">
        <lane id=":J43_5_0" index="0" speed="8.00" length="14.19" shape="-692.80,701.60 -696.65,701.05 -699.40,699.40 -701.05,696.65 -701.60,692.80"/>
    </edge>
    <edge id=":J43_6" function="internal">
        <lane id=":J43_6_0" index="0" speed="6.51" length="9.03" shape="-698.40,692.80 -698.05,695.25 -697.00,697.00 -695.25,698.05 -692.80,698.40"/>
    </edge>
    <edge id=":J43_7" function="internal">
        <lane id=":J43_7_0" index="0" speed="13.89" length="14.40" shape="-698.40,692.80 -698.40,707.20"/>
    </edge>
    <edge id=":J43_8" function="internal">
        <lane id=":J43_8_0" index="0" speed="8.00" length="4.07" shape="-698.40,692.80 -698.95,696.65 -699.04,696.80"/>
    </edge>
    <edge id=":J43_13" function="internal">
        <lane id=":J43_13_0" index="0" speed="8.00" length="10.13" shape="-699.04,696.80 -700.60,699.40 -703.35,701.05 -707.20,701.60"/>
    </edge>
    <edge id=":J43_9" function="internal">
        <lane id=":J43_9_0" index="0" speed="6.51" length="9.03" shape="-707.20,698.40 -704.75,698.05 -703.00,697.00 -701.95,695.25 -701.60,692.80"/>
    </edge>
    <edge id=":J43_10" function="internal">
        <lane id=":J43_10_0" index="0" speed="13.89" length="14.40" shape="-707.20,698.40 -692.80,698.40"/>
    </edge>
    <edge id=":J43_11" function="internal">
        <lane id=":J43_11_0" index="0" speed="8.00" length="14.19" shape="-707.20,698.40 -703.35,698.95 -700.60,700.60 -698.95,703.35 -698.40,707.20"/>
    </edge>
    <edge id=":J44_0" function="internal">
        <lane id=":J44_0_0" index="0" speed="6.51" length="9.03" shape="-601.60,707.20 -601.95,704.75 -603.00,703.00 -604.75,701.95 -607.20,701.60"/>
    </edge>
    <edge id=":J44_1" function="internal">
        <lane id=":J44_1_0" index="0" speed="13.89" length="14.40" shape="-601.60,707.20 -601.60,692.80"/>
    </edge>
    <edge id=":J44_2" function="internal">
        <lane id=":J44_2_0" index="0" speed="8.00" length="14.19" shape="-601.60,707.20 -601.05,703.35 -599.40,700.60 -596.65,698.95 -592.80,698.40"/>
    </edge>
    <edge id=":J44_3" function="internal">
        <lane id=":J44_3_0" index="0" speed="6.51" length="9.03" shape="-592.80,701.60 -595.25,701.95 -597.00,703.00 -598.05,704.75 -598.40,707.20"/>
    </edge>
    <edge id=":J44_4" function="internal">
        <lane id=":J44_4_0" index="0" speed="13.89" length="14.40" shape="-592.80,701.60 -607.20,701.60"/>
    </edge>
    <edge id=":J44_5" function="internal">
        <lane id=":J44_5_0" index="0" speed="8.00" length="4.07" shape="-592.80,701.60 -596.65,701.05 -596.80,700.96"/>
    </edge>
    <edge id=":J44_12" function="internal">
        <lane id=":J44_12_0" index="0" speed="8.00" length="10.13" shape="-596.80,700.96 -599.40,699.40 -601.05,696.65 -601.60,692.80"/>
    </edge>
    <edge id=":J44_6" function="internal">
        <lane id=":J44_6_0" index="0" speed="6.51" length="9.03" shape="-598.40,692.80 -598.05,695.25 -597.00,697.00 -595.25,698.05 -592.80,698.40"/>
    </edge>
    <edge id=":J44_7" function="internal">
        <lane id=":J44_7_0" index="0" speed="13.89" length="14.40" shape="-598.40,692.80 -598.40,707.20"/>
    </edge>
    <edge id=":J44_8" function="internal">
        <lane id=":J44_8_0" index="0" speed="8.00" length="14.19" shape="-598.40,692.80 -598.95,696.65 -600.60,699.40 -603.35,701.05 -607.20,701.60"/>
    </edge>
    <edge id=":J44_9" function="internal">
        <lane id=":J44_9_0" index="0" speed="6.51" length="9.03" shape="-607.20,698.40 -604.75,698.05 -603.00,697.00 -601.95,695.25 -601.60,692.80"/>
    </edge>
    <edge id=":J44_10" function="internal">
        <lane id=":J44_10_0" index="0" speed="13.89" length="14.40" shape="-607.20,698.40 -592.80,698.40"/>
    </edge>
    <edge id=":J44_11" function="internal">
        <lane id=":J44_11_0" index="0" speed="8.00" length="4.07" shape="-607.20,698.40 -603.35,698.95 -603.20,699.04"/>
    </edge>
    <edge id=":J44_13" function="internal">
        <lane id=":J44_13_0" index="0" speed="8.00" length="10.13" shape="-603.20,699.04 -600.60,700.60 -598.95,703.35 -598.40,707.20"/>
    </edge>
    <edge id=":J45_0" function="internal">
        <lane id=":J45_0_0" index="0" speed="6.51" length="9.03" shape="-501.60,707.20 -501.95,704.75 -503.00,703.00 -504.75,701.95 -507.20,701.60"/>
    </edge>
    <edge id=":J45_1" function="internal">
        <lane id=":J45_1_0" index="0" speed="13.89" length="14.40" shape="-501.60,707.20 -501.60,692.80"/>
    </edge>
    <edge id=":J45_2" function="internal">
        <lane id=":J45_2_0" index="0" speed="8.00" length="4.07" shape="-501.60,707.20 -501.05,703.35 -500.96,703.20"/>
    </edge>
    <edge id=":J45_12" function="internal">
        <lane id=":J45_12_0" index="0" speed="8.00" length="10.13" shape="-500.96,703.20 -499.40,700.60 -496.65,698.95 -492.80,698.40"/>
    </edge>
    <edge id=":J45_3" function="internal">
        <lane id=":J45_3_0" index="0" speed="6.51" length="9.03" shape="-492.80,701.60 -495.25,701.95 -497.00,703.00 -498.05,704.75 -498.40,707.20"/>
    </edge>
    <edge id=":J45_4" function="internal">
        <lane id=":J45_4_0" index="0" speed="13.89" length="14.40" shape="-492.80,701.60 -507.20,701.60"/>
    </edge>
    <edge id=":J45_5" function="internal">
        <lane id=":J45_5_0" index="0" speed="8.00" length="14.19" shape="-492.80,701.60 -496.65,701.05 -499.40,699.40 -501.05,696.65 -501.60,692.80"/>
    </edge>
    <edge id=":J45_6" function="internal">
        <lane id=":J45_6_0" index="0" speed="6.51" length="9.03" shape="-498.40,692.80 -498.05,695.25 -497.00,697.00 -495.25,698.05 -492.80,698.40"/>
    </edge>
    <edge id=":J45_7" function="internal">
        <lane id=":J45_7_0" index="0" speed="13.89" length="14.40" shape="-498.40,692.80 -498.40,707.20"/>
    </edge>
    <edge id=":J45_8" function="internal">
        <lane id=":J45_8_0" index="0" speed="8.00" length="4.07" shape="-498.40,692.80 -498.95,696.65 -499.04,696.80"/>
    </edge>
    <edge id=":J45_13" function="internal">
        <lane id=":J45_13_0" index="0" speed="8.00" length="10.13" shape="-499.04,696.80 -500.60,699.40 -503.35,701.05 -507.20,701.60"/>
    </edge>
    <edge id=":J45_9" function="internal">
        <lane id=":J45_9_0" index="0" speed="6.51" length="9.03" shape="-507.20,698.40 -504.75,698.05 -503.00,697.00 -501.95,695.25 -501.60,692.80"/>
    </edge>
    <edge id=":J45_10" function="internal">
        <lane id=":J45_10_0" index="0" speed="13.89" length="14.40" shape="-507.20,698.40 -492.80,698.40"/>
    </edge>
    <edge id=":J45_11" function="internal">
        <lane id=":J45_11_0" index="0" speed="8.00" length="14.19" shape="-507.20,698.40 -503.35,698.95 -500.60,700.60 -498.95,703.35 -498.40,707.20"/>
    </edge>
    <edge id=":J46_0" function="internal">
        <lane id=":J46_0_0" index="0" speed="6.51" length="9.03" shape="-401.60,707.20 -401.95,704.75 -403.00,703.00 -404.75,701.95 -407.20,701.60"/>
    </edge>
    <edge id=":J46_1" function="internal">
        <lane id=":J46_1_0" index="0" speed="13.89" length="14.40" shape="-401.60,707.20 -401.60,692.80"/>
    </edge>
    <edge id=":J46_2" function="internal">
        <lane id=":J46_2_0" index="0" speed="8.00" length="14.19" shape="-401.60,707.20 -401.05,703.35 -399.40,700.60 -396.65,698.95 -392.80,698.40"/>
    </edge>
    <edge id=":J46_3" function="internal">
        <lane id=":J46_3_0" index="0" speed="6.51" length="9.03" shape="-392.80,701.60 -395.25,701.95 -397.00,703.00 -398.05,704.75 -398.40,707.20"/>
    </edge>
    <edge id=":J46_4" function="internal">
        <lane id=":J46_4_0" index="0" speed="13.89" length="14.40" shape="-392.80,701.60 -407.20,701.60"/>
    </edge>
    <edge id=":J46_5" function="internal">
        <lane id=":J46_5_0" index="0" speed="8.00" length="4.07" shape="-392.80,701.60 -396.65,701.05 -396.80,700.96"/>
    </edge>
    <edge id=":J46_12" function="internal">
        <lane id=":J46_12_0" index="0" speed="8.00" length="10.13" shape="-396.80,700.96 -399.40,699.40 -401.05,696.65 -401.60,692.80"/>
    </edge>
    <edge id=":J46_6" function="internal">
        <lane id=":J46_6_0" index="0" speed="6.51" length="9.03" shape="-398.40,692.80 -398.05,695.25 -397.00,697.00 -395.25,698.05 -392.80,698.40"/>
    </edge>
    <edge id=":J46_7" function="internal">
        <lane id=":J46_7_0" index="0" speed="13.89" length="14.40" shape="-398.40,692.80 -398.40,707.20"/>
    </edge>
    <edge id=":J46_8" function="internal">
        <lane id=":J46_8_0" index="0" speed="8.00" length="14.19" shape="-398.40,692.80 -398.95,696.65 -400.60,699.40 -403.35,701.05 -407.20,701.60"/>
    </edge>
    <edge id=":J46_9" function="internal">
        <lane id=":J46_9_0" index="0" speed="6.51" length="9.03" shape="-407.20,698.40 -404.75,698.05 -403.00,697.00 -401.95,695.25 -401.60,692.80"/>
    </edge>
    <edge id=":J46_10" function="internal">
        <lane id=":J46_10_0" index="0" speed="13.89" length="14.40" shape="-407.20,698.40 -392.80,698.40"/>
    </edge>
    <edge id=":J46_11" function="internal">
        <lane id=":J46_11_0" index="0" speed="8.00" length="4.07" shape="-407.20,698.40 -403.35,698.95 -403.20,699.04"/>
    </edge>
    <edge id=":J46_13" function="internal">
        <lane id=":J46_13_0" index="0" speed="8.00" length="10.13" shape="-403.20,699.04 -400.60,700.60 -398.95,703.35 -398.40,707.20"/>
    </edge>
    <edge id=":J47_0" function="internal">
        <lane id=":J47_0_0" index="0" speed="6.51" length="9.03" shape="-801.60,607.20 -801.95,604.75 -803.00,603.00 -804.75,601.95 -807.20,601.60"/>
    </edge>
    <edge id=":J47_1" function="internal">
        <lane id=":J47_1_0" index="0" speed="13.89" length="14.40" shape="-801.60,607.20 -801.60,592.80"/>
    </edge>
    <edge id=":J47_2" function="internal">
        <lane id=":J47_2_0" index="0" speed="8.00" length="4.07" shape="-801.60,607.20 -801.05,603.35 -800.96,603.20"/>
    </edge>
    <edge id=":J47_12" function="internal">
        <lane id=":J47_12_0" index="0" speed="8.00" length="10.13" shape="-800.96,603.20 -799.40,600.60 -796.65,598.95 -792.80,598.40"/>
    </edge>
    <edge id=":J47_3" function="internal">
        <lane id=":J47_3_0" index="0" speed="6.51" length="9.03" shape="-792.80,601.60 -795.25,601.95 -797.00,603.00 -798.05,604.75 -798.40,607.20"/>
    </edge>
    <edge id=":J47_4" function="internal">
        <lane id=":J47_4_0" index="0" speed="13.89" length="14.40" shape="-792.80,601.60 -807.20,601.60"/>
    </edge>
    <edge id=":J47_5" function="internal">
        <lane id=":J47_5_0" index="0" speed="8.00" length="14.19" shape="-792.80,601.60 -796.65,601.05 -799.40,599.40 -801.05,596.65 -801.60,592.80"/>
    </edge>
    <edge id=":J47_6" function="internal">
        <lane id=":J47_6_0" index="0" speed="6.51" length="9.03" shape="-798.40,592.80 -798.05,595.25 -797.00,597.00 -795.25,598.05 -792.80,598.40"/>
    </edge>
    <edge id=":J47_7" function="internal">
        <lane id=":J47_7_0" index="0" speed="13.89" length="14.40" shape="-798.40,592.80 -798.40,607.20"/>
    </edge>
    <edge id=":J47_8" function="internal">
        <lane id=":J47_8_0" index="0" speed="8.00" length="4.07" shape="-798.40,592.80 -798.95,596.65 -799.04,596.80"/>
    </edge>
    <edge id=":J47_13" function="internal">
        <lane id=":J47_13_0" index="0" speed="8.00" length="10.13" shape="-799.04,596.80 -800.60,599.40 -803.35,601.05 -807.20,601.60"/>
    </edge>
    <edge id=":J47_9" function="internal">
        <lane id=":J47_9_0" index="0" speed="6.51" length="9.03" shape="-807.20,598.40 -804.75,598.05 -803.00,597.00 -801.95,595.25 -801.60,592.80"/>
    </edge>
    <edge id=":J47_10" function="internal">
        <lane id=":J47_10_0" index="0" speed="13.89" length="14.40" shape="-807.20,598.40 -792.80,598.40"/>
    </edge>
    <edge id=":J47_11" function="internal">
        <lane id=":J47_11_0" index="0" speed="8.00" length="14.19" shape="-807.20,598.40 -803.35,598.95 -800.60,600.60 -798.95,603.35 -798.40,607.20"/>
    </edge>
    <edge id=":J48_0" function="internal">
        <lane id=":J48_0_0" index="0" speed="6.51" length="9.03" shape="-701.60,607.20 -701.95,604.75 -703.00,603.00 -704.75,601.95 -707.20,601.60"/>
    </edge>
    <edge id=":J48_1" function="internal">
        <lane id=":J48_1_0" index="0" speed="13.89" length="14.40" shape="-701.60,607.20 -701.60,592.80"/>
    </edge>
    <edge id=":J48_2" function="internal">
        <lane id=":J48_2_0" index="0" speed="8.00" length="14.19" shape="-701.60,607.20 -701.05,603.35 -699.40,600.60 -696.65,598.95 -692.80,598.40"/>
    </edge>
    <edge id=":J48_3" function="internal">
        <lane id=":J48_3_0" index="0" speed="6.51" length="9.03" shape="-692.80,601.60 -695.25,601.95 -697.00,603.00 -698.05,604.75 -698.40,607.20"/>
    </edge>
    <edge id=":J48_4" function="internal">
        <lane id=":J48_4_0" index="0" speed="13.89" length="14.40" shape="-692.80,601.60 -707.20,601.60"/>
    </edge>
    <edge id=":J48_5" function="internal">
        <lane id=":J48_5_0" index="0" speed="8.00" length="4.07" shape="-692.80,601.60 -696.65,601.05 -696.80,600.96"/>
    </edge>
    <edge id=":J48_12" function="internal">
        <lane id=":J48_12_0" index="0" speed="8.00" length="10.13" shape="-696.80,600.96 -699.40,599.40 -701.05,596.65 -701.60,592.80"/>
    </edge>
    <edge id=":J48_6" function="internal">
        <lane id=":J48_6_0" index="0" speed="6.51" length="9.03" shape="-698.40,592.80 -698.05,595.25 -697.00,597.00 -695.25,598.05 -692.80,598.40"/>
    </edge>
    <edge id=":J48_7" function="internal">
        <lane id=":J48_7_0" index="0" speed="13.89" length="14.40" shape="-698.40,592.80 -698.40,607.20"/>
    </edge>
    <edge id=":J48_8" function="internal">
        <lane id=":J48_8_0" index="0" speed="8.00" length="14.19" shape="-698.40,592.80 -698.95,596.65 -700.60,599.40 -703.35,601.05 -707.20,601.60"/>
    </edge>
    <edge id=":J48_9" function="internal">
        <lane id=":J48_9_0" index="0" speed="6.51" length="9.03" shape="-707.20,598.40 -704.75,598.05 -703.00,597.00 -701.95,595.25 -701.60,592.80"/>
    </edge>
    <edge id=":J48_10" function="internal">
        <lane id=":J48_10_0" index="0" speed="13.89" length="14.40" shape="-707.20,598.40 -692.80,598.40"/>
    </edge>
    <edge id=":J48_11" function="internal">
        <lane id=":J48_11_0" index="0" speed="8.00" length="4.07" shape="-707.20,598.40 -703.35,598.95 -703.20,599.04"/>
    </edge>
    <edge id=":J48_13" function="internal">
        <lane id=":J48_13_0" index="0" speed="8.00" length="10.13" shape="-703.20,599.04 -700.60,600.60 -698.95,603.35 -698.40,607.20"/>
    </edge>
    <edge id=":J49_0" function="internal">
        <lane id=":J49_0_0" index="0" speed="6.51" length="9.03" shape="-601.60,607.20 -601.95,604.75 -603.00,603.00 -604.75,601.95 -607.20,601.60"/>
    </edge>
    <edge id=":J49_1" function="internal">
        <lane id=":J49_1_0" index="0" speed="13.89" length="14.40" shape="-601.60,607.20 -601.60,592.80"/>
    </edge>
    <edge id=":J49_2" function="internal">
        <lane id=":J49_2_0" index="0" speed="8.00" length="4.07" shape="-601.60,607.20 -601.05,603.35 -600.96,603.20"/>
    </edge>
    <edge id=":J49_12" function="internal">
        <lane id=":J49_12_0" index="0" speed="8.00" length="10.13" shape="-600.96,603.20 -599.40,600.60 -596.65,598.95 -592.80,598.40"/>
    </edge>
    <edge id=":J49_3" function="internal">
        <lane id=":J49_3_0" index="0" speed="6.51" length="9.03" shape="-592.80,601.60 -595.25,601.95 -597.00,603.00 -598.05,604.75 -598.40,607.20"/>
    </edge>
    <edge id=":J49_4" function="internal">
        <lane id=":J49_4_0" index="0" speed="13.89" length="14.40" shape="-592.80,601.60 -607.20,601.60"/>
    </edge>
    <edge id=":J49_5" function="internal">
        <lane id=":J49_5_0" index="0" speed="8.00" length="14.19" shape="-592.80,601.60 -596.65,601.05 -599.40,599.40 -601.05,596.65 -601.60,592.80"/>
    </edge>
    <edge id=":J49_6" function="internal">
        <lane id=":J49_6_0" index="0" speed="6.51" length="9.03" shape="-598.40,592.80 -598.05,595.25 -597.00,597.00 -595.25,598.05 -592.80,598.40"/>
    </edge>
    <edge id=":J49_7" function="internal">
        <lane id=":J49_7_0" index="0" speed="13.89" length="14.40" shape="-598.40,592.80 -598.40,607.20"/>
    </edge>
    <edge id=":J49_8" function="internal">
        <lane id=":J49_8_0" index="0" speed="8.00" length="4.07" shape="-598.40,592.80 -598.95,596.65 -599.04,596.80"/>
    </edge>
    <edge id=":J49_13" function="internal">
        <lane id=":J49_13_0" index="0" speed="8.00" length="10.13" shape="-599.04,596.80 -600.60,599.40 -603.35,601.05 -607.20,601.60"/>
    </edge>
    <edge id=":J49_9" function="internal">
        <lane id=":J49_9_0" index="0" speed="6.51" length="9.03" shape="-607.20,598.40 -604.75,598.05 -603.00,597.00 -601.95,595.25 -601.60,592.80"/>
    </edge>
    <edge id=":J49_10" function="internal">
        <lane id=":J49_10_0" index="0" speed="13.89" length="14.40" shape="-607.20,598.40 -592.80,598.40"/>
    </edge>
    <edge id=":J49_11" function="internal">
        <lane id=":J49_11_0" index="0" speed="8.00" length="14.19" shape="-607.20,598.40 -603.35,598.95 -600.60,600.60 -598.95,603.35 -598.40,607.20"/>
    </edge>
    <edge id=":J5_0" function="internal">
        <lane id=":J5_0_0" index="0" speed="13.89" length="0.10" shape="-900.00,501.60 -900.00,501.60"/>
    </edge>
    <edge id=":J5_1" function="internal">
        <lane id=":J5_1_0" index="0" speed="13.89" length="0.10" shape="-900.00,498.40 -900.00,498.40"/>
    </edge>
    <edge id=":J50_0" function="internal">
        <lane id=":J50_0_0" index="0" speed="6.51" length="9.03" shape="-501.60,607.20 -501.95,604.75 -503.00,603.00 -504.75,601.95 -507.20,601.60"/>
    </edge>
    <edge id=":J50_1" function="internal">
        <lane id=":J50_1_0" index="0" speed="13.89" length="14.40" shape="-501.60,607.20 -501.60,592.80"/>
    </edge>
    <edge id=":J50_2" function="internal">
        <lane id=":J50_2_0" index="0" speed="8.00" length="14.19" shape="-501.60,607.20 -501.05,603.35 -499.40,600.60 -496.65,598.95 -492.80,598.40"/>
    </edge>
    <edge id=":J50_3" function="internal">
        <lane id=":J50_3_0" index="0" speed="6.51" length="9.03" shape="-492.80,601.60 -495.25,601.95 -497.00,603.00 -498.05,604.75 -498.40,607.20"/>
    </edge>
    <edge id=":J50_4" function="internal">
        <lane id=":J50_4_0" index="0" speed="13.89" length="14.40" shape="-492.80,601.60 -507.20,601.60"/>
    </edge>
    <edge id=":J50_5" function="internal">
        <lane id=":J50_5_0" index="0" speed="8.00" length="4.07" shape="-492.80,601.60 -496.65,601.05 -496.80,600.96"/>
    </edge>
    <edge id=":J50_12" function="internal">
        <lane id=":J50_12_0" index="0" speed="8.00" length="10.13" shape="-496.80,600.96 -499.40,599.40 -501.05,596.65 -501.60,592.80"/>
    </edge>
    <edge id=":J50_6" function="internal">
        <lane id=":J50_6_0" index="0" speed="6.51" length="9.03" shape="-498.40,592.80 -498.05,595.25 -497.00,597.00 -495.25,598.05 -492.80,598.40"/>
    </edge>
    <edge id=":J50_7" function="internal">
        <lane id=":J50_7_0" index="0" speed="13.89" length="14.40" shape="-498.40,592.80 -498.40,607.20"/>
    </edge>
    <edge id=":J50_8" function="internal">