<?xml version="1.0" encoding="UTF-8"?>

<!-- generated on 2024-09-18 21:44:07 by Eclipse SUMO netedit Version 1.19.0
<configuration xmlns:xsi="http://www.w3.org/2001/XMLSchema-instance" xsi:noNamespaceSchemaLocation="http://sumo.dlr.de/xsd/neteditConfiguration.xsd">

    <input>
        <sumo-net-file value="C:\Users\kriehl\Documents\GitHub\eth_microsimulation_traffic\Lecture03\sumo_example_network_crazy_star\Network.net.xml"/>
    </input>

    <output>
        <output-file value="C:\Users\kriehl\Documents\GitHub\eth_microsimulation_traffic\Lecture03\sumo_example_network_crazy_star\Network.net.xml"/>
    </output>

    <processing>
        <geometry.min-radius.fix.railways value="false"/>
        <geometry.max-grade.fix value="false"/>
        <offset.disable-normalization value="true"/>
        <lefthand value="0"/>
    </processing>

    <junctions>
        <no-internal-links value="false"/>
        <no-turnarounds value="true"/>
        <junctions.corner-detail value="5"/>
        <junctions.limit-turn-speed value="5.50"/>
        <rectangular-lane-cut value="0"/>
    </junctions>

    <pedestrian>
        <walkingareas value="0"/>
    </pedestrian>

</configuration>
-->

<net version="1.16" junctionCornerDetail="5" limitTurnSpeed="5.50" xmlns:xsi="http://www.w3.org/2001/XMLSchema-instance" xsi:noNamespaceSchemaLocation="http://sumo.dlr.de/xsd/net_file.xsd">

    <location netOffset="0.00,0.00" convBoundary="-83.48,-148.37,32.39,-24.12" origBoundary="-10000000000.00,-10000000000.00,10000000000.00,10000000000.00" projParameter="!"/>

    <edge id=":J0_w0" function="walkingarea">
        <lane id=":J0_w0_0" index="0" allow="pedestrian" speed="2.78" length="0.10" width="3.20" shape="-0.72,-20.60 -3.40,-18.84 4.62,-24.12 1.95,-22.36"/>
    </edge>
    <edge id=":J2_0" function="internal">
        <lane id=":J2_0_0" index="0" disallow="pedestrian" speed="10.29" length="16.25" shape="-20.93,-65.96 -27.68,-63.36 -33.44,-64.12 -35.86,-66.22"/>
        <lane id=":J2_0_1" index="1" allow="bus" speed="7.91" length="8.25" shape="-24.18,-71.47 -27.85,-70.14 -31.02,-70.76 -31.83,-71.53"/>
        <lane id=":J2_0_2" index="2" disallow="pedestrian" speed="7.71" length="5.42" shape="-26.31,-75.09 -30.83,-73.00 -31.27,-72.95"/>
    </edge>
    <edge id=":J2_6" function="internal">
        <lane id=":J2_6_0" index="0" disallow="pedestrian" speed="10.29" length="11.44" shape="-35.86,-66.22 -38.19,-68.24 -41.94,-75.71"/>
    </edge>
    <edge id=":J2_7" function="internal">
        <lane id=":J2_7_0" index="0" allow="bus" speed="7.91" length="7.63" shape="-31.83,-71.53 -33.71,-73.33 -35.91,-77.85"/>
    </edge>
    <edge id=":J2_8" function="internal">
        <lane id=":J2_8_0" index="0" disallow="pedestrian" speed="7.71" length="9.60" shape="-31.27,-72.95 -34.43,-72.59 -37.13,-73.85 -38.92,-76.78"/>
    </edge>
    <edge id=":J2_3" function="internal">
        <lane id=":J2_3_0" index="0" disallow="pedestrian" speed="7.06" length="7.75" shape="-41.73,-70.06 -40.06,-71.76 -39.04,-73.45 -38.66,-75.13 -38.92,-76.78"/>
        <lane id=":J2_3_1" index="1" allow="bicycle" speed="6.71" length="7.44" width="1.00" shape="-40.36,-68.47 -40.40,-69.68 -41.26,-71.80 -42.32,-73.96 -42.98,-75.34"/>
        <lane id=":J2_3_2" index="2" disallow="pedestrian" speed="9.38" length="14.27" shape="-38.99,-66.88 -35.63,-70.20 -33.49,-73.31 -32.58,-76.22 -32.89,-78.92"/>
    </edge>
    <edge id=":J2_c0" function="crossing" crossingEdges="E1">
        <lane id=":J2_c0_0" index="0" allow="pedestrian" speed="2.78" length="3.20" width="4.00" shape="-23.34,-60.75 -26.01,-58.99"/>
    </edge>
    <edge id=":J2_w0" function="walkingarea">
        <lane id=":J2_w0_0" index="0" allow="pedestrian" speed="2.78" length="2.56" width="4.00" shape="-27.59,-55.56 -24.91,-57.32 -27.56,-61.02 -30.02,-63.80 -32.28,-65.65 -34.36,-66.58 -36.25,-66.58"/>
    </edge>
    <edge id=":J2_w1" function="walkingarea">
        <lane id=":J2_w1_0" index="0" allow="pedestrian" speed="2.78" length="6.61" width="4.00" shape="-22.24,-59.08 -19.57,-60.84 -19.10,-62.86 -20.12,-64.58 -21.33,-63.75 -22.19,-62.88 -22.72,-61.98 -22.90,-61.05 -22.74,-60.08"/>
    </edge>
    <edge id=":J2_w3" function="walkingarea">
        <lane id=":J2_w3_0" index="0" allow="pedestrian" speed="2.78" length="3.98" width="3.20" shape="-37.42,-77.32 -40.43,-76.25 -43.45,-75.18 -44.08,-72.78 -42.78,-71.27 -41.03,-72.81 -39.63,-74.14 -38.56,-75.26 -37.84,-76.16 -37.46,-76.85"/>
    </edge>
    <edge id=":J5_w0" function="walkingarea">
        <lane id=":J5_w0_0" index="0" allow="pedestrian" speed="2.78" length="0.10" width="3.20" shape="-58.87,-147.30 -55.85,-148.37 -67.91,-144.09 -64.90,-145.16 -61.88,-146.23"/>
    </edge>

    <edge id="E1" from="J0" to="J2" priority="-1">
        <lane id="E1_0" index="0" speed="13.89" length="43.97" shape="-2.06,-19.72 -26.25,-56.44"/>
        <lane id="E1_1" index="1" allow="bus" speed="13.89" length="43.97" shape="0.61,-21.48 -23.58,-58.20"/>
        <lane id="E1_2" index="2" speed="13.89" length="43.97" shape="3.28,-23.24 -20.91,-59.96"/>
    </edge>
    <edge id="E2" from="J3" to="J2" priority="-1" spreadType="center">
        <lane id="E2_0" index="0" allow="pedestrian" speed="13.89" length="56.08" width="2.00" shape="-85.90,-35.40 -43.43,-72.03"/>
        <lane id="E2_1" index="1" disallow="pedestrian" speed="13.89" length="56.08" shape="-84.20,-33.43 -41.73,-70.06"/>
        <lane id="E2_2" index="2" allow="bicycle" speed="13.89" length="56.08" width="1.00" shape="-82.83,-31.84 -40.36,-68.47"/>
        <lane id="E2_3" index="3" disallow="pedestrian" speed="13.89" length="56.08" shape="-81.46,-30.25 -38.99,-66.88"/>
    </edge>
    <edge id="E3" from="J4" to="J2" priority="-1">
        <lane id="E3_0" index="0" allow="pedestrian" speed="13.89" length="70.97" width="2.00" shape="41.53,-99.75 -19.61,-63.72"/>
        <lane id="E3_1" index="1" disallow="pedestrian" speed="13.89" length="70.97" shape="40.21,-101.99 -20.93,-65.96"/>
        <lane id="E3_2" index="2" disallow="pedestrian" speed="13.89" length="70.97" shape="38.58,-104.75 -22.56,-68.71"/>
        <lane id="E3_3" index="3" disallow="pedestrian" speed="13.89" length="70.97" shape="36.96,-107.51 -24.18,-71.47"/>
        <lane id="E3_4" index="4" allow="bicycle" speed="13.89" length="70.97" width="1.00" shape="35.89,-109.32 -25.25,-73.28"/>
        <lane id="E3_5" index="5" disallow="pedestrian" speed="13.89" length="70.97" shape="34.83,-111.12 -26.31,-75.09"/>
        <lane id="E3_6" index="6" disallow="all" speed="13.89" length="70.97" shape="33.20,-113.88 -27.94,-77.85"/>
    </edge>
    <edge id="E4" from="J2" to="J5" priority="-1">
        <lane id="E4_0" index="0" speed="13.89" length="73.12" shape="-41.94,-75.71 -66.40,-144.62"/>
        <lane id="E4_1" index="1" speed="13.89" length="73.12" shape="-38.92,-76.78 -63.39,-145.69"/>
        <lane id="E4_2" index="2" allow="bus" speed="13.89" length="73.12" shape="-35.91,-77.85 -60.37,-146.76"/>
        <lane id="E4_3" index="3" speed="13.89" length="73.12" shape="-32.89,-78.92 -57.36,-147.83"/>
    </edge>

    <junction id="J0" type="dead_end" x="4.62" y="-24.12" incLanes="" intLanes="" shape="4.62,-24.12 -3.40,-18.84"/>
    <junction id="J2" type="traffic_light" x="-30.86" y="-77.98" incLanes="E1_0 E1_1 E1_2 E3_0 E3_1 E3_2 E3_3 E3_4 E3_5 E3_6 E2_0 E2_1 E2_2 E2_3 :J2_w1_0" intLanes=":J2_6_0 :J2_7_0 :J2_8_0 :J2_3_0 :J2_3_1 :J2_3_2 :J2_c0_0" shape="-27.59,-55.56 -19.57,-60.84 -19.88,-61.62 -19.87,-61.97 -19.73,-62.29 -19.47,-62.59 -19.10,-62.86 -27.13,-76.47 -28.77,-76.11 -29.51,-76.44 -30.19,-77.10 -30.82,-78.11 -31.39,-79.46 -43.45,-75.18 -43.30,-74.28 -43.36,-73.87 -43.51,-73.49 -43.75,-73.12 -44.08,-72.78 -37.94,-65.67 -35.74,-65.45 -34.17,-64.16 -32.29,-62.08 -30.10,-59.21">
        <request index="0" response="0111000" foes="0111000" cont="1"/>
        <request index="1" response="0100000" foes="0100000" cont="1"/>
        <request index="2" response="0101000" foes="0101000" cont="1"/>
        <request index="3" response="0000000" foes="0000111" cont="0"/>
        <request index="4" response="0000000" foes="0000111" cont="0"/>
        <request index="5" response="0000000" foes="0000111" cont="0"/>
        <request index="6" response="0000000" foes="0000000" cont="0"/>
    </junction>
    <junction id="J3" type="dead_end" x="-83.48" y="-32.60" incLanes="" intLanes="" shape="-80.41,-29.04 -86.55,-36.16"/>
    <junction id="J4" type="dead_end" x="32.39" y="-115.26" incLanes="" intLanes="" shape="34.01,-112.50 42.04,-98.89"/>
    <junction id="J5" type="dead_end" x="-55.85" y="-148.37" incLanes="E4_0 E4_1 E4_2 E4_3" intLanes="" shape="-67.91,-144.09 -55.85,-148.37"/>

    <junction id=":J2_6_0" type="internal" x="-35.86" y="-66.22" incLanes=":J2_0_0 E2_1 E2_2 E2_3" intLanes=":J2_3_0 :J2_3_1 :J2_3_2"/>
    <junction id=":J2_7_0" type="internal" x="-31.83" y="-71.53" incLanes=":J2_0_1 E2_1 E2_2 E2_3" intLanes=":J2_3_0 :J2_3_1 :J2_3_2"/>
    <junction id=":J2_8_0" type="internal" x="-31.27" y="-72.95" incLanes=":J2_0_2 E2_1 E2_2 E2_3" intLanes=":J2_3_0 :J2_3_1 :J2_3_2"/>

    <connection from="E2" to="E4" fromLane="1" toLane="1" uncontrolled="1" via=":J2_3_0" dir="r" state="M"/>
    <connection from="E2" to="E4" fromLane="2" toLane="0" uncontrolled="1" via=":J2_3_1" dir="r" state="M"/>
    <connection from="E2" to="E4" fromLane="3" toLane="3" uncontrolled="1" via=":J2_3_2" dir="r" state="M"/>
    <connection from="E3" to="E4" fromLane="1" toLane="0" uncontrolled="1" via=":J2_0_0" dir="l" state="m"/>
    <connection from="E3" to="E4" fromLane="3" toLane="2" uncontrolled="1" via=":J2_0_1" dir="l" state="m"/>
    <connection from="E3" to="E4" fromLane="5" toLane="1" uncontrolled="1" via=":J2_0_2" dir="l" state="m"/>

    <connection from=":J2_0" to="E4" fromLane="0" toLane="0" via=":J2_6_0" dir="l" state="m"/>
    <connection from=":J2_6" to="E4" fromLane="0" toLane="0" dir="l" state="M"/>
    <connection from=":J2_0" to="E4" fromLane="1" toLane="2" via=":J2_7_0" dir="l" state="m"/>
    <connection from=":J2_7" to="E4" fromLane="0" toLane="2" dir="l" state="M"/>
    <connection from=":J2_0" to="E4" fromLane="2" toLane="1" via=":J2_8_0" dir="l" state="m"/>
    <connection from=":J2_8" to="E4" fromLane="0" toLane="1" dir="l" state="M"/>
    <connection from=":J2_3" to="E4" fromLane="0" toLane="1" dir="r" state="M"/>
    <connection from=":J2_3" to="E4" fromLane="1" toLane="0" dir="r" state="M"/>
    <connection from=":J2_3" to="E4" fromLane="2" toLane="3" dir="r" state="M"/>

    <connection from=":J0_w0" to="E1" fromLane="0" toLane="0" dir="s" state="M"/>
    <connection from=":J2_c0" to=":J2_w0" fromLane="0" toLane="0" dir="s" state="M"/>
    <connection from="E1" to=":J2_w0" fromLane="0" toLane="0" dir="s" state="M"/>
    <connection from=":J2_w1" to=":J2_c0" fromLane="0" toLane="0" dir="s" state="m"/>
    <connection from="E1" to=":J2_w1" fromLane="0" toLane="0" dir="s" state="M"/>
    <connection from="E3" to=":J2_w1" fromLane="0" toLane="0" dir="s" state="M"/>
    <connection from=":J2_w3" to="E4" fromLane="0" toLane="0" dir="s" state="M"/>
    <connection from="E2" to=":J2_w3" fromLane="0" toLane="0" dir="s" state="M"/>
    <connection from="E4" to=":J5_w0" fromLane="0" toLane="0" dir="s" state="M"/>
</net>
