<?xml version="1.0" encoding="UTF-8"?>

<!-- generated on 2024-10-17 09:52:46 by Eclipse SUMO netedit Version 1.19.0
<configuration xmlns:xsi="http://www.w3.org/2001/XMLSchema-instance" xsi:noNamespaceSchemaLocation="http://sumo.dlr.de/xsd/neteditConfiguration.xsd">

    <input>
        <sumo-net-file value="C:\Users\kriehl\Documents\GitHub\eth_microsimulation_traffic\Lecture10\demo.net.xml"/>
    </input>

    <output>
        <output-file value="C:\Users\kriehl\Documents\GitHub\eth_microsimulation_traffic\Lecture10\demo.net.xml"/>
    </output>

    <processing>
        <offset.disable-normalization value="true"/>
    </processing>

    <junctions>
        <no-turnarounds value="true"/>
    </junctions>

    <netedit>
        <new-network value="false"/>
    </netedit>

</configuration>
-->

<net version="1.16" junctionCornerDetail="5" limitTurnSpeed="5.50" xmlns:xsi="http://www.w3.org/2001/XMLSchema-instance" xsi:noNamespaceSchemaLocation="http://sumo.dlr.de/xsd/net_file.xsd">

    <location netOffset="0.00,0.00" convBoundary="-100.00,-100.00,100.00,100.00" origBoundary="10000000000.00,10000000000.00,-10000000000.00,-10000000000.00" projParameter="!"/>

    <edge id=":J1_0" function="internal">
        <lane id=":J1_0_0" index="0" disallow="pedestrian" speed="5.99" length="7.49" shape="-1.60,10.40 -1.83,7.95 -2.50,6.20 -3.63,5.15 -5.20,4.80"/>
    </edge>
    <edge id=":J1_1" function="internal">
        <lane id=":J1_1_0" index="0" speed="13.89" length="20.80" shape="-1.60,10.40 -1.60,-10.40"/>
    </edge>
    <edge id=":J1_2" function="internal">
        <lane id=":J1_2_0" index="0" speed="8.31" length="15.39" shape="-1.60,10.40 -1.17,5.15 0.10,1.40 2.23,-0.85 5.20,-1.60"/>
    </edge>
    <edge id=":J1_3" function="internal">
        <lane id=":J1_3_0" index="0" speed="6.92" length="10.35" shape="5.20,1.60 3.62,2.15 2.50,3.80 1.82,6.55 1.60,10.40"/>
    </edge>
    <edge id=":J1_4" function="internal">
        <lane id=":J1_4_0" index="0" disallow="pedestrian" speed="13.89" length="10.40" shape="5.20,1.60 -5.20,1.60"/>
    </edge>
    <edge id=":J1_5" function="internal">
        <lane id=":J1_5_0" index="0" speed="8.31" length="3.53" shape="5.20,1.60 2.23,0.85 1.91,0.52"/>
    </edge>
    <edge id=":J1_12" function="internal">
        <lane id=":J1_12_0" index="0" speed="8.31" length="11.87" shape="1.91,0.52 0.10,-1.40 -1.17,-5.15 -1.60,-10.40"/>
    </edge>
    <edge id=":J1_6" function="internal">
        <lane id=":J1_6_0" index="0" speed="6.92" length="10.35" shape="1.60,-10.40 1.83,-6.55 2.50,-3.80 3.63,-2.15 5.20,-1.60"/>
    </edge>
    <edge id=":J1_7" function="internal">
        <lane id=":J1_7_0" index="0" speed="13.89" length="20.80" shape="1.60,-10.40 1.60,10.40"/>
    </edge>
    <edge id=":J1_8" function="internal">
        <lane id=":J1_8_0" index="0" disallow="pedestrian" speed="8.31" length="15.39" shape="1.60,-10.40 1.17,-5.15 -0.10,-1.40 -2.23,0.85 -5.20,1.60"/>
    </edge>
    <edge id=":J1_9" function="internal">
        <lane id=":J1_9_0" index="0" disallow="pedestrian" speed="5.99" length="7.49" shape="-5.20,-4.80 -3.62,-5.15 -2.50,-6.20 -1.82,-7.95 -1.60,-10.40"/>
    </edge>
    <edge id=":J1_10" function="internal">
        <lane id=":J1_10_0" index="0" disallow="pedestrian" speed="13.89" length="11.02" shape="-5.20,-4.80 -1.98,-4.30 0.17,-3.20 2.23,-2.10 5.20,-1.60"/>
    </edge>
    <edge id=":J1_11" function="internal">
        <lane id=":J1_11_0" index="0" disallow="pedestrian" speed="8.31" length="2.86" shape="-5.20,-1.60 -2.42,-0.90"/>
    </edge>
    <edge id=":J1_13" function="internal">
        <lane id=":J1_13_0" index="0" disallow="pedestrian" speed="8.31" length="12.53" shape="-2.42,-0.90 -2.23,-0.85 -0.10,1.40 1.17,5.15 1.60,10.40"/>
    </edge>

    <edge id="-E0" from="J1" to="J0" priority="-1">
        <lane id="-E0_0" index="0" allow="pedestrian" speed="13.89" length="94.80" width="2.00" shape="-5.20,7.40 -100.00,7.40"/>
        <lane id="-E0_1" index="1" disallow="pedestrian" speed="13.89" length="94.80" shape="-5.20,4.80 -100.00,4.80"/>
        <lane id="-E0_2" index="2" disallow="pedestrian" speed="13.89" length="94.80" shape="-5.20,1.60 -100.00,1.60"/>
    </edge>
    <edge id="-E1" from="J2" to="J1" priority="-1">
        <lane id="-E1_0" index="0" speed="13.89" length="89.60" shape="-1.60,100.00 -1.60,10.40"/>
    </edge>
    <edge id="-E2" from="J3" to="J1" priority="-1">
        <lane id="-E2_0" index="0" speed="13.89" length="94.80" shape="100.00,1.60 5.20,1.60"/>
    </edge>
    <edge id="-E3" from="J4" to="J1" priority="-1">
        <lane id="-E3_0" index="0" speed="13.89" length="89.60" shape="1.60,-100.00 1.60,-10.40"/>
    </edge>
    <edge id="E0" from="J0" to="J1" priority="-1">
        <lane id="E0_0" index="0" allow="pedestrian" speed="13.89" length="94.80" width="2.00" shape="-100.00,-7.40 -5.20,-7.40"/>
        <lane id="E0_1" index="1" disallow="pedestrian" speed="13.89" length="94.80" shape="-100.00,-4.80 -5.20,-4.80"/>
        <lane id="E0_2" index="2" disallow="pedestrian" speed="13.89" length="94.80" shape="-100.00,-1.60 -5.20,-1.60"/>
    </edge>
    <edge id="E1" from="J1" to="J2" priority="-1">
        <lane id="E1_0" index="0" speed="13.89" length="89.60" shape="1.60,10.40 1.60,100.00"/>
    </edge>
    <edge id="E2" from="J1" to="J3" priority="-1">
        <lane id="E2_0" index="0" speed="13.89" length="94.80" shape="5.20,-1.60 100.00,-1.60"/>
    </edge>
    <edge id="E3" from="J1" to="J4" priority="-1">
        <lane id="E3_0" index="0" speed="13.89" length="89.60" shape="-1.60,-10.40 -1.60,-100.00"/>
    </edge>

    <junction id="J0" type="dead_end" x="-100.00" y="0.00" incLanes="-E0_0 -E0_1 -E0_2" intLanes="" shape="-100.00,0.00 -100.00,8.40 -100.00,0.00"/>
    <junction id="J1" type="priority" x="0.00" y="0.00" incLanes="-E1_0 -E2_0 -E3_0 E0_0 E0_1 E0_2" intLanes=":J1_0_0 :J1_1_0 :J1_2_0 :J1_3_0 :J1_4_0 :J1_12_0 :J1_6_0 :J1_7_0 :J1_8_0 :J1_9_0 :J1_10_0 :J1_13_0" shape="-3.20,10.40 3.20,10.40 3.26,8.20 3.42,6.40 3.70,5.00 4.09,4.00 4.59,3.40 5.20,3.20 5.20,-3.20 4.09,-4.00 3.70,-5.00 3.42,-6.40 3.26,-8.20 3.20,-10.40 -3.20,-10.40 -3.42,-9.29 -3.70,-8.90 -4.09,-8.62 -4.59,-8.46 -5.20,-8.40 -5.20,8.40 -4.09,8.62 -3.70,8.90 -3.42,9.29 -3.26,9.79">
        <request index="0"  response="000000000000" foes="000000000000" cont="0"/>
        <request index="1"  response="111000110000" foes="111100110000" cont="0"/>
        <request index="2"  response="110111110000" foes="110111110000" cont="0"/>
        <request index="3"  response="000000000000" foes="100010000000" cont="0"/>
        <request index="4"  response="000000000000" foes="100110000110" cont="0"/>
        <request index="5"  response="111000000000" foes="111110000110" cont="1"/>
        <request index="6"  response="010000000000" foes="010000000100" cont="0"/>
        <request index="7"  response="110000111000" foes="110000111100" cont="0"/>
        <request index="8"  response="110000110010" foes="110000110110" cont="0"/>
        <request index="9"  response="000000000000" foes="000000100010" cont="0"/>
        <request index="10" response="000000000000" foes="000111100110" cont="0"/>
        <request index="11" response="000000011000" foes="000110111110" cont="1"/>
    </junction>
    <junction id="J2" type="dead_end" x="0.00" y="100.00" incLanes="E1_0" intLanes="" shape="0.00,100.00 3.20,100.00 0.00,100.00"/>
    <junction id="J3" type="dead_end" x="100.00" y="0.00" incLanes="E2_0" intLanes="" shape="100.00,0.00 100.00,-3.20 100.00,0.00"/>
    <junction id="J4" type="dead_end" x="0.00" y="-100.00" incLanes="E3_0" intLanes="" shape="0.00,-100.00 -3.20,-100.00 0.00,-100.00"/>

    <junction id=":J1_12_0" type="internal" x="1.91" y="0.52" incLanes=":J1_5_0 E0_1" intLanes=":J1_1_0 :J1_2_0 :J1_7_0 :J1_8_0 :J1_9_0 :J1_10_0"/>
    <junction id=":J1_13_0" type="internal" x="-2.42" y="-0.90" incLanes=":J1_11_0 -E2_0" intLanes=":J1_1_0 :J1_2_0 :J1_3_0 :J1_4_0 :J1_7_0 :J1_8_0"/>

    <connection from="-E1" to="-E0" fromLane="0" toLane="1" via=":J1_0_0" dir="r" state="M"/>
    <connection from="-E1" to="E3" fromLane="0" toLane="0" via=":J1_1_0" dir="s" state="m"/>
    <connection from="-E1" to="E2" fromLane="0" toLane="0" via=":J1_2_0" dir="l" state="m"/>
    <connection from="-E2" to="E1" fromLane="0" toLane="0" via=":J1_3_0" dir="r" state="M"/>
    <connection from="-E2" to="-E0" fromLane="0" toLane="2" via=":J1_4_0" dir="s" state="M"/>
    <connection from="-E2" to="E3" fromLane="0" toLane="0" via=":J1_5_0" dir="l" state="m"/>
    <connection from="-E3" to="E2" fromLane="0" toLane="0" via=":J1_6_0" dir="r" state="m"/>
    <connection from="-E3" to="E1" fromLane="0" toLane="0" via=":J1_7_0" dir="s" state="m"/>
    <connection from="-E3" to="-E0" fromLane="0" toLane="2" via=":J1_8_0" dir="l" state="m"/>
    <connection from="E0" to="E3" fromLane="1" toLane="0" via=":J1_9_0" dir="r" state="M"/>
    <connection from="E0" to="E2" fromLane="1" toLane="0" via=":J1_10_0" dir="s" state="M"/>
    <connection from="E0" to="E1" fromLane="2" toLane="0" via=":J1_11_0" dir="l" state="m"/>

    <connection from=":J1_0" to="-E0" fromLane="0" toLane="1" dir="r" state="M"/>
    <connection from=":J1_1" to="E3" fromLane="0" toLane="0" dir="s" state="M"/>
    <connection from=":J1_2" to="E2" fromLane="0" toLane="0" dir="l" state="M"/>
    <connection from=":J1_3" to="E1" fromLane="0" toLane="0" dir="r" state="M"/>
    <connection from=":J1_4" to="-E0" fromLane="0" toLane="2" dir="s" state="M"/>
    <connection from=":J1_5" to="E3" fromLane="0" toLane="0" via=":J1_12_0" dir="l" state="m"/>
    <connection from=":J1_12" to="E3" fromLane="0" toLane="0" dir="l" state="M"/>
    <connection from=":J1_6" to="E2" fromLane="0" toLane="0" dir="r" state="M"/>
    <connection from=":J1_7" to="E1" fromLane="0" toLane="0" dir="s" state="M"/>
    <connection from=":J1_8" to="-E0" fromLane="0" toLane="2" dir="l" state="M"/>
    <connection from=":J1_9" to="E3" fromLane="0" toLane="0" dir="r" state="M"/>
    <connection from=":J1_10" to="E2" fromLane="0" toLane="0" dir="s" state="M"/>
    <connection from=":J1_11" to="E1" fromLane="0" toLane="0" via=":J1_13_0" dir="l" state="m"/>
    <connection from=":J1_13" to="E1" fromLane="0" toLane="0" dir="l" state="M"/>

</net>
