<?xml version="1.0" encoding="UTF-8"?>

<!-- generated on 2024-09-19 08:29:46 by Eclipse SUMO netedit Version 1.19.0
-->

<routes xmlns:xsi="http://www.w3.org/2001/XMLSchema-instance" xsi:noNamespaceSchemaLocation="http://sumo.dlr.de/xsd/routes_file.xsd">
    <!-- Routes -->
    <route id="r_0" edges="E5 E6"/>
    <route id="r_1" edges="-E7 -E5"/>
    <route id="r_2" edges="-E6 E8"/>
    <!-- Vehicles, persons and containers (sorted by depart) -->
    <vehicle id="v_0" depart="0.00">
        <route edges="E5 E6"/>
    </vehicle>
	
    <person id="p_0" depart="0.00">
        <personTrip from="E5" to="-E6" lines="ANY"/>
    </person>
    <person id="p_1" depart="0.00">
        <personTrip from="E5" to="-E6" lines="ANY"/>
    </person>
    
	<vehicle id="v_1" depart="10.00">
        <route edges="-E7 -E5"/>
    </vehicle>
    <vehicle id="v_2" depart="20.00">
        <route edges="-E6 E8"/>
    </vehicle>
</routes>
