<?xml version="1.0" encoding="UTF-8"?>

<!-- generated on 2024-09-19 09:30:21 by Eclipse SUMO netedit Version 1.19.0
-->

<routes xmlns:xsi="http://www.w3.org/2001/XMLSchema-instance" xsi:noNamespaceSchemaLocation="http://sumo.dlr.de/xsd/routes_file.xsd">
    <!-- VTypes -->
    <vType id="DEFAULT_VEHTYPE" vClass="bus"/>
    <vType id="line_65" vClass="bus"/>
    <vType id="t_1" vClass="bus"/>
    <vType id="t_2"/>
    <!-- Routes -->
    <route id="r_0" edges="E5 E7"/>
    <!-- Vehicles, persons and containers (sorted by depart) -->
    <vehicle id="line_65_08_00" type="line_65" depart="0.00" route="r_0">
        <stop busStop="bs_0" duration="60.00"/>
    </vehicle>
    <vehicle id="v_0" type="line_65" depart="0.00" route="r_0"/>
    <person id="p_0" depart="0.00">
        <personTrip from="-E8" to="E6" lines="ANY"/>
    </person>
</routes>
