<?xml version="1.0" encoding="UTF-8"?>

<!-- generated on 2024-03-05 20:16:40 by Eclipse SUMO netedit Version 1.19.0
<configuration xmlns:xsi="http://www.w3.org/2001/XMLSchema-instance" xsi:noNamespaceSchemaLocation="http://sumo.dlr.de/xsd/neteditConfiguration.xsd">

    <input>
        <sumo-net-file value="C:\Users\kriehl\Desktop\SRF Stau Experiment\SumoSimulation\Network.net.xml"/>
    </input>

    <output>
        <output-file value="C:\Users\kriehl\Desktop\SRF Stau Experiment\SumoSimulation\Network.net.xml"/>
    </output>

    <processing>
        <geometry.min-radius.fix.railways value="false"/>
        <geometry.max-grade.fix value="false"/>
        <offset.disable-normalization value="true"/>
        <lefthand value="0"/>
    </processing>

    <junctions>
        <no-turnarounds value="true"/>
        <junctions.corner-detail value="5"/>
        <junctions.limit-turn-speed value="5.50"/>
        <rectangular-lane-cut value="0"/>
    </junctions>

    <pedestrian>
        <walkingareas value="0"/>
    </pedestrian>

</configuration>
-->

<net version="1.16" junctionCornerDetail="5" limitTurnSpeed="5.50" xmlns:xsi="http://www.w3.org/2001/XMLSchema-instance" xsi:noNamespaceSchemaLocation="http://sumo.dlr.de/xsd/net_file.xsd">

    <location netOffset="0.00,0.00" convBoundary="-27.30,-27.30,27.30,27.30" origBoundary="-10000000000.00,-10000000000.00,10000000000.00,10000000000.00" projParameter="!"/>

    <edge id=":J0_0" function="internal">
        <lane id=":J0_0_0" index="0" speed="13.889" length="0.51" shape="28.88,-0.25 28.90,-0.10 28.91,0.00 28.90,0.10 28.88,0.25"/>
    </edge>
    <edge id=":J1_0" function="internal">
        <lane id=":J1_0_0" index="0" speed="13.889" length="0.50" shape="27.54,8.69 27.52,8.84 27.49,8.94 27.45,9.03 27.39,9.17"/>
    </edge>
    <edge id=":J10_0" function="internal">
        <lane id=":J10_0_0" index="0" speed="13.889" length="0.51" shape="-28.88,0.25 -28.90,0.10 -28.91,-0.00 -28.90,-0.10 -28.88,-0.25"/>
    </edge>
    <edge id=":J11_0" function="internal">
        <lane id=":J11_0_0" index="0" speed="13.889" length="0.50" shape="-27.54,-8.68 -27.52,-8.83 -27.49,-8.93 -27.45,-9.02 -27.39,-9.16"/>
    </edge>
    <edge id=":J12_0" function="internal">
        <lane id=":J12_0_0" index="0" speed="13.889" length="0.51" shape="-23.52,-16.77 -23.45,-16.90 -23.39,-16.99 -23.33,-17.06 -23.22,-17.17"/>
    </edge>
    <edge id=":J13_0" function="internal">
        <lane id=":J13_0_0" index="0" speed="13.889" length="0.50" shape="-17.18,-23.21 -17.07,-23.32 -17.00,-23.38 -16.91,-23.44 -16.78,-23.51"/>
    </edge>
    <edge id=":J14_0" function="internal">
        <lane id=":J14_0_0" index="0" speed="13.889" length="0.50" shape="-9.17,-27.39 -9.03,-27.45 -8.94,-27.49 -8.84,-27.52 -8.69,-27.54"/>
    </edge>
    <edge id=":J15_0" function="internal">
        <lane id=":J15_0_0" index="0" speed="13.889" length="0.50" shape="-0.25,-28.88 -0.10,-28.90 -0.00,-28.91 0.10,-28.90 0.25,-28.88"/>
    </edge>
    <edge id=":J16_0" function="internal">
        <lane id=":J16_0_0" index="0" speed="13.889" length="0.51" shape="8.68,-27.55 8.83,-27.53 8.93,-27.50 9.02,-27.46 9.16,-27.40"/>
    </edge>
    <edge id=":J17_0" function="internal">
        <lane id=":J17_0_0" index="0" speed="13.889" length="0.50" shape="16.77,-23.52 16.90,-23.45 16.99,-23.39 17.06,-23.33 17.17,-23.22"/>
    </edge>
    <edge id=":J18_0" function="internal">
        <lane id=":J18_0_0" index="0" speed="13.889" length="0.50" shape="23.21,-17.18 23.32,-17.07 23.38,-17.00 23.44,-16.91 23.51,-16.78"/>
    </edge>
    <edge id=":J19_0" function="internal">
        <lane id=":J19_0_0" index="0" speed="13.889" length="0.50" shape="27.39,-9.17 27.45,-9.03 27.49,-8.94 27.52,-8.84 27.54,-8.69"/>
    </edge>
    <edge id=":J2_0" function="internal">
        <lane id=":J2_0_0" index="0" speed="13.889" length="0.51" shape="23.52,16.78 23.45,16.91 23.39,17.00 23.33,17.07 23.22,17.18"/>
    </edge>
    <edge id=":J3_0" function="internal">
        <lane id=":J3_0_0" index="0" speed="13.889" length="0.51" shape="17.18,23.22 17.07,23.33 17.00,23.39 16.91,23.45 16.78,23.52"/>
    </edge>
    <edge id=":J4_0" function="internal">
        <lane id=":J4_0_0" index="0" speed="13.889" length="0.50" shape="9.17,27.39 9.03,27.45 8.94,27.49 8.84,27.52 8.69,27.54"/>
    </edge>
    <edge id=":J5_0" function="internal">
        <lane id=":J5_0_0" index="0" speed="13.889" length="0.51" shape="0.25,28.88 0.10,28.90 -0.00,28.91 -0.10,28.90 -0.25,28.88"/>
    </edge>
    <edge id=":J6_0" function="internal">
        <lane id=":J6_0_0" index="0" speed="13.889" length="0.50" shape="-8.68,27.54 -8.83,27.52 -8.93,27.49 -9.02,27.45 -9.15,27.39"/>
    </edge>
    <edge id=":J7_0" function="internal">
        <lane id=":J7_0_0" index="0" speed="13.889" length="0.51" shape="-16.77,23.52 -16.91,23.45 -17.00,23.39 -17.08,23.33 -17.18,23.22"/>
    </edge>
    <edge id=":J8_0" function="internal">
        <lane id=":J8_0_0" index="0" speed="13.889" length="0.50" shape="-23.21,17.18 -23.32,17.07 -23.38,17.00 -23.44,16.91 -23.51,16.78"/>
    </edge>
    <edge id=":J9_0" function="internal">
        <lane id=":J9_0_0" index="0" speed="13.889" length="0.50" shape="-27.39,9.17 -27.45,9.03 -27.49,8.94 -27.52,8.84 -27.54,8.69"/>
    </edge>

    <edge id="E0" from="J0" to="J1" priority="-1">
        <lane id="E0_0" index="0" speed="13.889" length="8.55" shape="28.88,0.25 27.54,8.69"/>
    </edge>
    <edge id="E1" from="J1" to="J2" priority="-1">
        <lane id="E1_0" index="0" speed="13.889" length="8.54" shape="27.39,9.17 23.52,16.78"/>
    </edge>
    <edge id="E10" from="J10" to="J11" priority="-1">
        <lane id="E10_0" index="0" speed="13.889" length="8.54" shape="-28.88,-0.25 -27.54,-8.68"/>
    </edge>
    <edge id="E11" from="J11" to="J12" priority="-1">
        <lane id="E11_0" index="0" speed="13.889" length="8.54" shape="-27.39,-9.16 -23.52,-16.77"/>
    </edge>
    <edge id="E12" from="J12" to="J13" priority="-1">
        <lane id="E12_0" index="0" speed="13.889" length="8.54" shape="-23.22,-17.17 -17.18,-23.21"/>
    </edge>
    <edge id="E13" from="J13" to="J14" priority="-1">
        <lane id="E13_0" index="0" speed="13.889" length="8.54" shape="-16.78,-23.51 -9.17,-27.39"/>
    </edge>
    <edge id="E14" from="J14" to="J15" priority="-1">
        <lane id="E14_0" index="0" speed="13.889" length="8.55" shape="-8.69,-27.54 -0.25,-28.88"/>
    </edge>
    <edge id="E15" from="J15" to="J16" priority="-1">
        <lane id="E15_0" index="0" speed="13.889" length="8.53" shape="0.25,-28.88 8.68,-27.55"/>
    </edge>
    <edge id="E16" from="J16" to="J17" priority="-1">
        <lane id="E16_0" index="0" speed="13.889" length="8.54" shape="9.16,-27.40 16.77,-23.52"/>
    </edge>
    <edge id="E17" from="J17" to="J18" priority="-1">
        <lane id="E17_0" index="0" speed="13.889" length="8.54" shape="17.17,-23.22 23.21,-17.18"/>
    </edge>
    <edge id="E18" from="J18" to="J19" priority="-1">
        <lane id="E18_0" index="0" speed="13.889" length="8.54" shape="23.51,-16.78 27.39,-9.17"/>
    </edge>
    <edge id="E19" from="J19" to="J0" priority="-1">
        <lane id="E19_0" index="0" speed="13.889" length="8.55" shape="27.54,-8.69 28.88,-0.25"/>
    </edge>
    <edge id="E2" from="J2" to="J3" priority="-1">
        <lane id="E2_0" index="0" speed="13.889" length="8.54" shape="23.22,17.18 17.18,23.22"/>
    </edge>
    <edge id="E3" from="J3" to="J4" priority="-1">
        <lane id="E3_0" index="0" speed="13.889" length="8.54" shape="16.78,23.52 9.17,27.39"/>
    </edge>
    <edge id="E4" from="J4" to="J5" priority="-1">
        <lane id="E4_0" index="0" speed="13.889" length="8.55" shape="8.69,27.54 0.25,28.88"/>
    </edge>
    <edge id="E5" from="J5" to="J6" priority="-1">
        <lane id="E5_0" index="0" speed="13.889" length="8.54" shape="-0.25,28.88 -8.68,27.54"/>
    </edge>
    <edge id="E6" from="J6" to="J7" priority="-1">
        <lane id="E6_0" index="0" speed="13.889" length="8.55" shape="-9.15,27.39 -16.77,23.52"/>
    </edge>
    <edge id="E7" from="J7" to="J8" priority="-1">
        <lane id="E7_0" index="0" speed="13.889" length="8.53" shape="-17.18,23.22 -23.21,17.18"/>
    </edge>
    <edge id="E8" from="J8" to="J9" priority="-1">
        <lane id="E8_0" index="0" speed="13.889" length="8.54" shape="-23.51,16.78 -27.39,9.17"/>
    </edge>
    <edge id="E9" from="J9" to="J10" priority="-1">
        <lane id="E9_0" index="0" speed="13.889" length="8.55" shape="-27.54,8.69 -28.88,0.25"/>
    </edge>

    <junction id="J0" type="priority" x="27.30" y="0.00" incLanes="E19_0" intLanes=":J0_0_0" shape="30.46,-0.50 27.30,0.00 30.46,0.50 30.51,0.13 30.52,-0.00 30.51,-0.13 30.49,-0.29">
        <request index="0" response="0" foes="0" cont="0"/>
    </junction>
    <junction id="J1" type="priority" x="25.96" y="8.44" incLanes="E0_0" intLanes=":J1_0_0" shape="29.12,8.94 25.96,8.44 28.81,9.89 28.98,9.56 29.02,9.43 29.06,9.31 29.09,9.15">
        <request index="0" response="0" foes="0" cont="0"/>
    </junction>
    <junction id="J10" type="priority" x="-27.30" y="0.00" incLanes="E9_0" intLanes=":J10_0_0" shape="-30.46,0.50 -27.30,-0.00 -30.46,-0.50 -30.51,-0.13 -30.52,-0.00 -30.51,0.13 -30.49,0.29">
        <request index="0" response="0" foes="0" cont="0"/>
    </junction>
    <junction id="J11" type="priority" x="-25.96" y="-8.43" incLanes="E10_0" intLanes=":J11_0_0" shape="-25.96,-8.43 -28.81,-9.88 -28.98,-9.55 -29.02,-9.42 -29.06,-9.30 -29.09,-9.14 -29.12,-8.93">
        <request index="0" response="0" foes="0" cont="0"/>
    </junction>
    <junction id="J12" type="priority" x="-22.09" y="-16.04" incLanes="E11_0" intLanes=":J12_0_0" shape="-22.09,-16.04 -24.35,-18.30 -24.61,-18.03 -24.70,-17.93 -24.77,-17.82 -24.84,-17.68 -24.94,-17.49">
        <request index="0" response="0" foes="0" cont="0"/>
    </junction>
    <junction id="J13" type="priority" x="-16.05" y="-22.08" incLanes="E12_0" intLanes=":J13_0_0" shape="-16.05,-22.08 -17.50,-24.93 -17.83,-24.76 -17.94,-24.68 -18.04,-24.60 -18.16,-24.49 -18.31,-24.34">
        <request index="0" response="0" foes="0" cont="0"/>
    </junction>
    <junction id="J14" type="priority" x="-8.44" y="-25.96" incLanes="E13_0" intLanes=":J14_0_0" shape="-8.44,-25.96 -8.94,-29.12 -9.31,-29.06 -9.44,-29.02 -9.56,-28.97 -9.70,-28.91 -9.89,-28.81">
        <request index="0" response="0" foes="0" cont="0"/>
    </junction>
    <junction id="J15" type="priority" x="0.00" y="-27.30" incLanes="E14_0" intLanes=":J15_0_0" shape="0.00,-27.30 0.50,-30.46 0.13,-30.51 -0.00,-30.52 -0.13,-30.51 -0.29,-30.49 -0.50,-30.46">
        <request index="0" response="0" foes="0" cont="0"/>
    </junction>
    <junction id="J16" type="priority" x="8.43" y="-25.97" incLanes="E15_0" intLanes=":J16_0_0" shape="8.43,-25.97 9.88,-28.82 9.55,-28.99 9.42,-29.03 9.30,-29.07 9.14,-29.10 8.93,-29.13">
        <request index="0" response="0" foes="0" cont="0"/>
    </junction>
    <junction id="J17" type="priority" x="16.04" y="-22.09" incLanes="E16_0" intLanes=":J17_0_0" shape="16.04,-22.09 18.30,-24.35 18.03,-24.61 17.93,-24.69 17.82,-24.77 17.68,-24.84 17.49,-24.94">
        <request index="0" response="0" foes="0" cont="0"/>
    </junction>
    <junction id="J18" type="priority" x="22.08" y="-16.05" incLanes="E17_0" intLanes=":J18_0_0" shape="22.08,-16.05 24.93,-17.50 24.76,-17.83 24.68,-17.94 24.60,-18.04 24.49,-18.16 24.34,-18.31">
        <request index="0" response="0" foes="0" cont="0"/>
    </junction>
    <junction id="J19" type="priority" x="25.96" y="-8.44" incLanes="E18_0" intLanes=":J19_0_0" shape="25.96,-8.44 29.12,-8.94 29.06,-9.31 29.02,-9.44 28.97,-9.56 28.91,-9.70 28.81,-9.89">
        <request index="0" response="0" foes="0" cont="0"/>
    </junction>
    <junction id="J2" type="priority" x="22.09" y="16.05" incLanes="E1_0" intLanes=":J2_0_0" shape="24.94,17.50 22.09,16.05 24.35,18.31 24.61,18.04 24.70,17.94 24.77,17.83 24.84,17.69">
        <request index="0" response="0" foes="0" cont="0"/>
    </junction>
    <junction id="J3" type="priority" x="16.05" y="22.09" incLanes="E2_0" intLanes=":J3_0_0" shape="18.31,24.35 16.05,22.09 17.50,24.94 17.83,24.77 17.94,24.70 18.04,24.61 18.16,24.50">
        <request index="0" response="0" foes="0" cont="0"/>
    </junction>
    <junction id="J4" type="priority" x="8.44" y="25.96" incLanes="E3_0" intLanes=":J4_0_0" shape="9.89,28.81 8.44,25.96 8.94,29.12 9.31,29.06 9.43,29.02 9.56,28.98 9.70,28.91">
        <request index="0" response="0" foes="0" cont="0"/>
    </junction>
    <junction id="J5" type="priority" x="0.00" y="27.30" incLanes="E4_0" intLanes=":J5_0_0" shape="0.50,30.46 -0.00,27.30 -0.50,30.46 -0.13,30.51 -0.00,30.52 0.13,30.51 0.29,30.49">
        <request index="0" response="0" foes="0" cont="0"/>
    </junction>
    <junction id="J6" type="priority" x="-8.43" y="25.96" incLanes="E5_0" intLanes=":J6_0_0" shape="-8.93,29.12 -8.43,25.96 -9.88,28.81 -9.55,28.98 -9.42,29.02 -9.30,29.06 -9.14,29.09">
        <request index="0" response="0" foes="0" cont="0"/>
    </junction>
    <junction id="J7" type="priority" x="-16.05" y="22.09" incLanes="E6_0" intLanes=":J7_0_0" shape="-17.50,24.94 -16.05,22.09 -18.31,24.35 -18.04,24.61 -17.94,24.70 -17.83,24.77 -17.69,24.84">
        <request index="0" response="0" foes="0" cont="0"/>
    </junction>
    <junction id="J8" type="priority" x="-22.08" y="16.05" incLanes="E7_0" intLanes=":J8_0_0" shape="-24.34,18.31 -22.08,16.05 -24.93,17.50 -24.76,17.83 -24.68,17.94 -24.60,18.04 -24.49,18.16">
        <request index="0" response="0" foes="0" cont="0"/>
    </junction>
    <junction id="J9" type="priority" x="-25.96" y="8.44" incLanes="E8_0" intLanes=":J9_0_0" shape="-28.81,9.89 -25.96,8.44 -29.12,8.94 -29.06,9.31 -29.02,9.44 -28.97,9.56 -28.91,9.70">
        <request index="0" response="0" foes="0" cont="0"/>
    </junction>

    <connection from="E0" to="E1" fromLane="0" toLane="0" via=":J1_0_0" dir="s" state="M"/>
    <connection from="E1" to="E2" fromLane="0" toLane="0" via=":J2_0_0" dir="s" state="M"/>
    <connection from="E10" to="E11" fromLane="0" toLane="0" via=":J11_0_0" dir="s" state="M"/>
    <connection from="E11" to="E12" fromLane="0" toLane="0" via=":J12_0_0" dir="s" state="M"/>
    <connection from="E12" to="E13" fromLane="0" toLane="0" via=":J13_0_0" dir="s" state="M"/>
    <connection from="E13" to="E14" fromLane="0" toLane="0" via=":J14_0_0" dir="s" state="M"/>
    <connection from="E14" to="E15" fromLane="0" toLane="0" via=":J15_0_0" dir="s" state="M"/>
    <connection from="E15" to="E16" fromLane="0" toLane="0" via=":J16_0_0" dir="s" state="M"/>
    <connection from="E16" to="E17" fromLane="0" toLane="0" via=":J17_0_0" dir="s" state="M"/>
    <connection from="E17" to="E18" fromLane="0" toLane="0" via=":J18_0_0" dir="s" state="M"/>
    <connection from="E18" to="E19" fromLane="0" toLane="0" via=":J19_0_0" dir="s" state="M"/>
    <connection from="E19" to="E0" fromLane="0" toLane="0" via=":J0_0_0" dir="s" state="M"/>
    <connection from="E2" to="E3" fromLane="0" toLane="0" via=":J3_0_0" dir="s" state="M"/>
    <connection from="E3" to="E4" fromLane="0" toLane="0" via=":J4_0_0" dir="s" state="M"/>
    <connection from="E4" to="E5" fromLane="0" toLane="0" via=":J5_0_0" dir="s" state="M"/>
    <connection from="E5" to="E6" fromLane="0" toLane="0" via=":J6_0_0" dir="s" state="M"/>
    <connection from="E6" to="E7" fromLane="0" toLane="0" via=":J7_0_0" dir="s" state="M"/>
    <connection from="E7" to="E8" fromLane="0" toLane="0" via=":J8_0_0" dir="s" state="M"/>
    <connection from="E8" to="E9" fromLane="0" toLane="0" via=":J9_0_0" dir="s" state="M"/>
    <connection from="E9" to="E10" fromLane="0" toLane="0" via=":J10_0_0" dir="s" state="M"/>

    <connection from=":J0_0" to="E0" fromLane="0" toLane="0" dir="s" state="M"/>
    <connection from=":J1_0" to="E1" fromLane="0" toLane="0" dir="s" state="M"/>
    <connection from=":J10_0" to="E10" fromLane="0" toLane="0" dir="s" state="M"/>
    <connection from=":J11_0" to="E11" fromLane="0" toLane="0" dir="s" state="M"/>
    <connection from=":J12_0" to="E12" fromLane="0" toLane="0" dir="s" state="M"/>
    <connection from=":J13_0" to="E13" fromLane="0" toLane="0" dir="s" state="M"/>
    <connection from=":J14_0" to="E14" fromLane="0" toLane="0" dir="s" state="M"/>
    <connection from=":J15_0" to="E15" fromLane="0" toLane="0" dir="s" state="M"/>
    <connection from=":J16_0" to="E16" fromLane="0" toLane="0" dir="s" state="M"/>
    <connection from=":J17_0" to="E17" fromLane="0" toLane="0" dir="s" state="M"/>
    <connection from=":J18_0" to="E18" fromLane="0" toLane="0" dir="s" state="M"/>
    <connection from=":J19_0" to="E19" fromLane="0" toLane="0" dir="s" state="M"/>
    <connection from=":J2_0" to="E2" fromLane="0" toLane="0" dir="s" state="M"/>
    <connection from=":J3_0" to="E3" fromLane="0" toLane="0" dir="s" state="M"/>
    <connection from=":J4_0" to="E4" fromLane="0" toLane="0" dir="s" state="M"/>
    <connection from=":J5_0" to="E5" fromLane="0" toLane="0" dir="s" state="M"/>
    <connection from=":J6_0" to="E6" fromLane="0" toLane="0" dir="s" state="M"/>
    <connection from=":J7_0" to="E7" fromLane="0" toLane="0" dir="s" state="M"/>
    <connection from=":J8_0" to="E8" fromLane="0" toLane="0" dir="s" state="M"/>
    <connection from=":J9_0" to="E9" fromLane="0" toLane="0" dir="s" state="M"/>

</net>
