<?xml version="1.0" encoding="UTF-8"?>

<!-- generated on 2024-10-24 18:46:06 by Eclipse SUMO netconvert Version 1.19.0
<configuration xmlns:xsi="http://www.w3.org/2001/XMLSchema-instance" xsi:noNamespaceSchemaLocation="http://sumo.dlr.de/xsd/netconvertConfiguration.xsd">

    <input>
        <osm-files value="map_esslingen.osm"/>
    </input>

    <output>
        <output-file value="osm.net.xml"/>
        <output.street-names value="true"/>
        <output.original-names value="true"/>
    </output>

    <projection>
        <proj.utm value="true"/>
    </projection>

    <processing>
        <geometry.remove value="true"/>
        <roundabouts.guess value="true"/>
    </processing>

    <tls_building>
        <tls.discard-simple value="true"/>
        <tls.join value="true"/>
        <tls.guess-signals value="true"/>
    </tls_building>

    <ramp_guessing>
        <ramps.guess value="true"/>
    </ramp_guessing>

    <junctions>
        <junctions.join value="true"/>
        <junctions.corner-detail value="5"/>
    </junctions>

</configuration>
-->

<net version="1.16" junctionCornerDetail="5" limitTurnSpeed="5.50" xmlns:xsi="http://www.w3.org/2001/XMLSchema-instance" xsi:noNamespaceSchemaLocation="http://sumo.dlr.de/xsd/net_file.xsd">

    <location netOffset="-523057.66,-5396240.58" convBoundary="0.00,0.00,5718.85,2441.64" origBoundary="9.313579,48.718529,9.391231,48.740657" projParameter="+proj=utm +zone=32 +ellps=WGS84 +datum=WGS84 +units=m +no_defs"/>

    <type id="highway.cycleway" priority="1" numLanes="1" speed="5.56" allow="bicycle" oneway="0" width="2.00"/>
    <type id="highway.footway" priority="1" numLanes="1" speed="2.78" allow="pedestrian" oneway="1" width="2.00"/>
    <type id="highway.living_street" priority="2" numLanes="1" speed="2.78" disallow="tram rail_urban rail rail_electric rail_fast ship" oneway="0"/>
    <type id="highway.path" priority="1" numLanes="1" speed="5.56" allow="pedestrian bicycle" oneway="0" width="2.00"/>
    <type id="highway.pedestrian" priority="1" numLanes="1" speed="2.78" allow="pedestrian" oneway="1" width="2.00"/>
    <type id="highway.residential" priority="3" numLanes="1" speed="13.89" disallow="tram rail_urban rail rail_electric rail_fast ship" oneway="0"/>
    <type id="highway.secondary" priority="11" numLanes="1" speed="27.78" disallow="tram rail_urban rail rail_electric rail_fast ship" oneway="0"/>
    <type id="highway.secondary_link" priority="6" numLanes="1" speed="22.22" disallow="tram rail_urban rail rail_electric rail_fast ship" oneway="0"/>
    <type id="highway.service" priority="1" numLanes="1" speed="5.56" allow="pedestrian delivery bicycle" oneway="0"/>
    <type id="highway.steps" priority="1" numLanes="1" speed="1.39" allow="pedestrian" oneway="1" width="2.00"/>
    <type id="highway.tertiary" priority="10" numLanes="1" speed="22.22" disallow="tram rail_urban rail rail_electric rail_fast ship" oneway="0"/>
    <type id="highway.tertiary_link" priority="5" numLanes="1" speed="22.22" disallow="tram rail_urban rail rail_electric rail_fast ship" oneway="0"/>
    <type id="highway.track" priority="1" numLanes="1" speed="5.56" allow="pedestrian motorcycle moped bicycle" oneway="0"/>
    <type id="highway.unclassified" priority="4" numLanes="1" speed="13.89" disallow="tram rail_urban rail rail_electric rail_fast ship" oneway="0"/>
    <type id="railway.rail" priority="20" numLanes="1" speed="44.44" allow="rail" oneway="1"/>

    <edge id=":10223034340_0" function="internal">
        <lane id=":10223034340_0_0" index="0" disallow="tram rail_urban rail rail_electric rail_fast ship" speed="8.33" length="4.40" shape="1897.77,1661.76 1896.57,1661.24 1895.73,1660.92 1894.88,1660.64 1893.63,1660.28"/>
    </edge>
    <edge id=":10223034340_1" function="internal">
        <lane id=":10223034340_1_0" index="0" disallow="tram rail_urban rail rail_electric rail_fast ship" speed="8.33" length="4.80" shape="1894.52,1657.20 1895.88,1657.60 1896.81,1657.90 1897.72,1658.26 1899.03,1658.82"/>
    </edge>
    <edge id=":10223052676_0" function="internal">
        <lane id=":10223052676_0_0" index="0" disallow="tram rail_urban rail rail_electric rail_fast ship" speed="8.33" length="5.11" shape="1854.45,1654.75 1849.35,1654.77"/>
    </edge>
    <edge id=":10223052676_1" function="internal">
        <lane id=":10223052676_1_0" index="0" disallow="tram rail_urban rail rail_electric rail_fast ship" speed="8.33" length="5.32" shape="1849.22,1651.57 1854.54,1651.55"/>
    </edge>
    <edge id=":10223052684_0" function="internal">
        <lane id=":10223052684_0_0" index="0" disallow="tram rail_urban rail rail_electric rail_fast ship" speed="8.33" length="4.56" shape="1915.13,1670.59 1913.98,1669.87 1913.19,1669.39 1912.37,1668.95 1911.17,1668.33"/>
    </edge>
    <edge id=":10223052684_1" function="internal">
        <lane id=":10223052684_1_0" index="0" disallow="tram rail_urban rail rail_electric rail_fast ship" speed="8.33" length="4.86" shape="1912.62,1665.48 1913.90,1666.13 1914.77,1666.61 1915.61,1667.12 1916.83,1667.88"/>
    </edge>
    <edge id=":10223056991_0" function="internal">
        <lane id=":10223056991_0_0" index="0" disallow="tram rail_urban rail rail_electric rail_fast ship" speed="8.33" length="5.05" shape="1682.64,1845.43 1679.86,1849.64"/>
    </edge>
    <edge id=":10223056991_1" function="internal">
        <lane id=":10223056991_1_0" index="0" disallow="tram rail_urban rail rail_electric rail_fast ship" speed="8.33" length="5.13" shape="1677.17,1847.91 1679.99,1843.63"/>
    </edge>
    <edge id=":10223056994_0" function="internal">
        <lane id=":10223056994_0_0" index="0" disallow="tram rail_urban rail rail_electric rail_fast ship" speed="8.33" length="5.00" shape="1698.58,1821.45 1695.85,1825.65"/>
    </edge>
    <edge id=":10223056994_1" function="internal">
        <lane id=":10223056994_1_0" index="0" disallow="tram rail_urban rail rail_electric rail_fast ship" speed="8.33" length="4.98" shape="1693.18,1823.89 1695.89,1819.72"/>
    </edge>
    <edge id=":10223064728_0" function="internal">
        <lane id=":10223064728_0_0" index="0" disallow="tram rail_urban rail rail_electric rail_fast ship" speed="8.33" length="5.10" shape="1803.18,1927.51 1802.22,1922.50"/>
    </edge>
    <edge id=":10223064728_1" function="internal">
        <lane id=":10223064728_1_0" index="0" disallow="tram rail_urban rail rail_electric rail_fast ship" speed="8.33" length="5.25" shape="1805.34,1921.81 1806.34,1926.96"/>
    </edge>
    <edge id=":10223066682_0" function="internal">
        <lane id=":10223066682_0_0" index="0" allow="pedestrian delivery bicycle" speed="3.65" length="4.67" shape="1726.47,1703.25 1726.81,1704.66 1726.56,1705.51 1725.72,1705.83 1724.30,1705.60"/>
    </edge>
    <edge id=":10223073653_0" function="internal">
        <lane id=":10223073653_0_0" index="0" disallow="tram rail_urban rail rail_electric rail_fast ship" speed="8.33" length="4.95" shape="1930.12,1885.82 1925.49,1884.07"/>
    </edge>
    <edge id=":10223073653_1" function="internal">
        <lane id=":10223073653_1_0" index="0" disallow="tram rail_urban rail rail_electric rail_fast ship" speed="8.33" length="5.00" shape="1926.59,1881.07 1931.27,1882.84"/>
    </edge>
    <edge id=":10223073657_0" function="internal">
        <lane id=":10223073657_0_0" index="0" disallow="tram rail_urban rail rail_electric rail_fast ship" speed="8.33" length="5.02" shape="1955.00,1787.92 1950.03,1787.16"/>
    </edge>
    <edge id=":10223073657_1" function="internal">
        <lane id=":10223073657_1_0" index="0" disallow="tram rail_urban rail rail_electric rail_fast ship" speed="8.33" length="5.06" shape="1950.49,1784.00 1955.50,1784.76"/>
    </edge>
    <edge id=":10223073659_0" function="internal">
        <lane id=":10223073659_0_0" index="0" disallow="tram rail_urban rail rail_electric rail_fast ship" speed="8.33" length="5.53" shape="1969.90,1900.61 1964.64,1898.91"/>
    </edge>
    <edge id=":10223073659_1" function="internal">
        <lane id=":10223073659_1_0" index="0" disallow="tram rail_urban rail rail_electric rail_fast ship" speed="8.33" length="5.25" shape="1965.71,1895.89 1970.71,1897.51"/>
    </edge>
    <edge id=":1036023893_0" function="internal">
        <lane id=":1036023893_0_0" index="0" allow="pedestrian bicycle" speed="6.95" length="2.44" width="2.00" shape="1492.19,1566.29 1491.56,1566.61 1491.21,1566.97 1490.86,1567.34 1490.26,1567.73"/>
    </edge>
    <edge id=":1036023893_1" function="internal">
        <lane id=":1036023893_1_0" index="0" allow="pedestrian bicycle" speed="6.95" length="2.69" width="2.00" shape="1488.90,1564.83 1489.64,1564.59 1490.19,1564.57 1490.76,1564.58 1491.53,1564.40"/>
    </edge>
    <edge id=":1036023893_2" function="internal">
        <lane id=":1036023893_2_0" index="0" disallow="tram rail_urban rail rail_electric rail_fast ship" speed="3.65" length="1.25" shape="1488.90,1564.83 1490.13,1565.02"/>
    </edge>
    <edge id=":1036023893_3" function="internal">
        <lane id=":1036023893_3_0" index="0" disallow="tram rail_urban rail rail_electric rail_fast ship" speed="3.65" length="3.43" shape="1490.13,1565.02 1490.32,1565.05 1491.02,1565.60 1491.00,1566.49 1490.26,1567.73"/>
    </edge>
    <edge id=":10805404408_0" function="internal">
        <lane id=":10805404408_0_0" index="0" allow="pedestrian delivery bicycle" speed="5.56" length="5.08" shape="1753.02,1264.53 1751.45,1259.70"/>
    </edge>
    <edge id=":10805404408_1" function="internal">
        <lane id=":10805404408_1_0" index="0" allow="pedestrian delivery bicycle" speed="3.65" length="4.67" shape="1753.02,1264.53 1753.44,1263.15 1754.10,1262.54 1754.98,1262.70 1756.09,1263.62"/>
    </edge>
    <edge id=":10805404408_2" function="internal">
        <lane id=":10805404408_2_0" index="0" allow="pedestrian delivery bicycle" speed="5.56" length="5.24" shape="1754.47,1258.64 1756.09,1263.62"/>
    </edge>
    <edge id=":10805404408_3" function="internal">
        <lane id=":10805404408_3_0" index="0" allow="pedestrian delivery bicycle" speed="3.65" length="4.67" shape="1754.47,1258.64 1754.11,1260.04 1753.49,1260.68 1752.61,1260.57 1751.45,1259.70"/>
    </edge>
    <edge id=":10812614518_0" function="internal">
        <lane id=":10812614518_0_0" index="0" disallow="tram rail_urban rail rail_electric rail_fast ship" speed="8.33" length="5.68" shape="1907.72,1114.18 1902.54,1116.53"/>
    </edge>
    <edge id=":10812614518_1" function="internal">
        <lane id=":10812614518_1_0" index="0" disallow="tram rail_urban rail rail_electric rail_fast ship" speed="8.33" length="5.66" shape="1901.24,1113.61 1906.38,1111.27"/>
    </edge>
    <edge id=":10812614528_0" function="internal">
        <lane id=":10812614528_0_0" index="0" disallow="tram rail_urban rail rail_electric rail_fast ship" speed="8.33" length="6.61" shape="1938.75,1081.04 1936.82,1081.36 1935.50,1081.62 1934.22,1082.04 1932.41,1082.79"/>
    </edge>
    <edge id=":10814786374_0" function="internal">
        <lane id=":10814786374_0_0" index="0" allow="pedestrian delivery bicycle" speed="3.65" length="4.67" shape="1986.26,1547.94 1986.98,1549.19 1986.99,1550.09 1986.27,1550.63 1984.84,1550.81"/>
    </edge>
    <edge id=":10814792344_0" function="internal">
        <lane id=":10814792344_0_0" index="0" disallow="tram rail_urban rail rail_electric rail_fast ship" speed="13.89" length="4.78" shape="2050.49,1709.07 2046.48,1706.46"/>
    </edge>
    <edge id=":10814792344_1" function="internal">
        <lane id=":10814792344_1_0" index="0" disallow="tram rail_urban rail rail_electric rail_fast ship" speed="13.89" length="4.57" shape="2048.33,1703.84 2052.17,1706.34"/>
    </edge>
    <edge id=":10814792345_0" function="internal">
        <lane id=":10814792345_0_0" index="0" allow="pedestrian delivery bicycle" speed="5.56" length="15.57" shape="2058.66,1697.76 2054.10,1693.95 2050.37,1691.57 2047.46,1690.63 2045.37,1691.11"/>
    </edge>
    <edge id=":10814792345_1" function="internal">
        <lane id=":10814792345_1_0" index="0" allow="pedestrian delivery bicycle" speed="3.65" length="1.44" shape="2058.66,1697.76 2058.31,1696.36"/>
    </edge>
    <edge id=":10814792345_4" function="internal">
        <lane id=":10814792345_4_0" index="0" allow="pedestrian delivery bicycle" speed="3.65" length="3.23" shape="2058.31,1696.36 2058.55,1695.50 2059.39,1695.17 2060.81,1695.39"/>
    </edge>
    <edge id=":10814792345_2" function="internal">
        <lane id=":10814792345_2_0" index="0" allow="pedestrian delivery bicycle" speed="5.56" length="16.20" shape="2047.21,1687.18 2049.51,1687.44 2052.54,1688.90 2056.31,1691.55 2060.81,1695.39"/>
    </edge>
    <edge id=":10814792345_3" function="internal">
        <lane id=":10814792345_3_0" index="0" allow="pedestrian delivery bicycle" speed="4.33" length="1.61" shape="2047.21,1687.18 2048.05,1688.56"/>
    </edge>
    <edge id=":10814792345_5" function="internal">
        <lane id=":10814792345_5_0" index="0" allow="pedestrian delivery bicycle" speed="4.33" length="4.72" shape="2048.05,1688.56 2048.22,1688.85 2048.26,1690.06 2047.30,1690.81 2045.37,1691.11"/>
    </edge>
    <edge id=":10814792349_0" function="internal">
        <lane id=":10814792349_0_0" index="0" disallow="tram rail_urban rail rail_electric rail_fast ship" speed="5.84" length="9.50" shape="2026.12,1714.67 2024.12,1712.56 2022.24,1711.87 2020.50,1712.62 2018.90,1714.79"/>
    </edge>
    <edge id=":10814792349_1" function="internal">
        <lane id=":10814792349_1_0" index="0" disallow="tram rail_urban rail rail_electric rail_fast ship" speed="9.60" length="13.29" shape="2026.12,1714.67 2023.51,1710.74 2021.89,1707.42 2021.27,1704.73 2021.64,1702.65"/>
    </edge>
    <edge id=":10814792349_2" function="internal">
        <lane id=":10814792349_2_0" index="0" disallow="tram rail_urban rail rail_electric rail_fast ship" speed="3.65" length="4.67" shape="2026.12,1714.67 2026.06,1713.23 2026.47,1712.43 2027.35,1712.28 2028.70,1712.77"/>
    </edge>
    <edge id=":10814792349_3" function="internal">
        <lane id=":10814792349_3_0" index="0" disallow="tram rail_urban rail rail_electric rail_fast ship" speed="7.47" length="7.79" shape="2027.38,1705.50 2026.85,1707.18 2026.90,1708.95 2027.51,1710.81 2028.70,1712.77"/>
    </edge>
    <edge id=":10814792349_4" function="internal">
        <lane id=":10814792349_4_0" index="0" disallow="tram rail_urban rail rail_electric rail_fast ship" speed="13.89" length="12.70" shape="2027.38,1705.50 2025.20,1708.71 2022.97,1710.60 2020.82,1712.27 2018.90,1714.79"/>
    </edge>
    <edge id=":10814792349_5" function="internal">
        <lane id=":10814792349_5_0" index="0" disallow="tram rail_urban rail rail_electric rail_fast ship" speed="3.65" length="1.44" shape="2024.51,1704.07 2023.26,1704.79"/>
    </edge>
    <edge id=":10814792349_10" function="internal">
        <lane id=":10814792349_10_0" index="0" disallow="tram rail_urban rail rail_electric rail_fast ship" speed="3.65" length="3.23" shape="2023.26,1704.79 2022.37,1704.80 2021.83,1704.08 2021.64,1702.65"/>
    </edge>
    <edge id=":10814792349_6" function="internal">
        <lane id=":10814792349_6_0" index="0" disallow="tram rail_urban rail rail_electric rail_fast ship" speed="13.89" length="12.23" shape="2016.07,1713.29 2017.10,1710.32 2017.28,1707.68 2017.53,1704.83 2018.78,1701.23"/>
        <lane id=":10814792349_6_1" index="1" disallow="tram rail_urban rail rail_electric rail_fast ship" speed="13.89" length="12.23" shape="2016.07,1713.29 2021.64,1702.65"/>
    </edge>
    <edge id=":10814792349_8" function="internal">
        <lane id=":10814792349_8_0" index="0" disallow="tram rail_urban rail rail_electric rail_fast ship" speed="7.51" length="7.61" shape="2016.07,1713.29 2018.91,1709.41 2021.47,1708.25"/>
    </edge>
    <edge id=":10814792349_9" function="internal">
        <lane id=":10814792349_9_0" index="0" disallow="tram rail_urban rail rail_electric rail_fast ship" speed="3.65" length="1.44" shape="2016.07,1713.29 2017.34,1712.61"/>
    </edge>
    <edge id=":10814792349_11" function="internal">
        <lane id=":10814792349_11_0" index="0" disallow="tram rail_urban rail rail_electric rail_fast ship" speed="7.51" length="9.01" shape="2021.47,1708.25 2021.96,1708.03 2025.23,1709.15 2028.70,1712.77"/>
    </edge>
    <edge id=":10814792349_12" function="internal">
        <lane id=":10814792349_12_0" index="0" disallow="tram rail_urban rail rail_electric rail_fast ship" speed="3.65" length="3.23" shape="2017.34,1712.61 2018.24,1712.63 2018.75,1713.36 2018.90,1714.79"/>
    </edge>
    <edge id=":10828119451_0" function="internal">
        <lane id=":10828119451_0_0" index="0" disallow="tram rail_urban rail rail_electric rail_fast ship" speed="13.89" length="6.56" shape="1330.07,1201.93 1326.51,1207.31"/>
        <lane id=":10828119451_0_1" index="1" disallow="tram rail_urban rail rail_electric rail_fast ship" speed="13.89" length="6.56" shape="1327.52,1200.00 1323.83,1205.57"/>
    </edge>
    <edge id=":10828119451_2" function="internal">
        <lane id=":10828119451_2_0" index="0" disallow="tram rail_urban rail rail_electric rail_fast ship" speed="3.65" length="1.44" shape="1327.52,1200.00 1326.15,1200.47"/>
    </edge>
    <edge id=":10828119451_7" function="internal">
        <lane id=":10828119451_7_0" index="0" disallow="tram rail_urban rail rail_electric rail_fast ship" speed="3.65" length="3.23" shape="1326.15,1200.47 1325.28,1200.31 1324.88,1199.51 1324.97,1198.07"/>
    </edge>
    <edge id=":10828119451_3" function="internal">
        <lane id=":10828119451_3_0" index="0" disallow="tram rail_urban rail rail_electric rail_fast ship" speed="7.49" length="6.43" shape="1318.91,1199.59 1321.10,1199.54 1322.83,1199.26 1324.12,1198.77 1324.97,1198.07"/>
    </edge>
    <edge id=":10828119451_4" function="internal">
        <lane id=":10828119451_4_0" index="0" disallow="tram rail_urban rail rail_electric rail_fast ship" speed="5.97" length="10.56" shape="1318.91,1199.59 1322.47,1200.04 1324.48,1201.18 1324.93,1203.03 1323.83,1205.57"/>
    </edge>
    <edge id=":10828119451_5" function="internal">
        <lane id=":10828119451_5_0" index="0" disallow="tram rail_urban rail rail_electric rail_fast ship" speed="13.89" length="6.91" shape="1321.14,1203.82 1324.97,1198.07"/>
    </edge>
    <edge id=":10828119451_6" function="internal">
        <lane id=":10828119451_6_0" index="0" disallow="tram rail_urban rail rail_electric rail_fast ship" speed="3.65" length="1.44" shape="1321.14,1203.82 1322.47,1203.25"/>
    </edge>
    <edge id=":10828119451_8" function="internal">
        <lane id=":10828119451_8_0" index="0" disallow="tram rail_urban rail rail_electric rail_fast ship" speed="3.65" length="3.23" shape="1322.47,1203.25 1323.36,1203.35 1323.81,1204.12 1323.83,1205.57"/>
    </edge>
    <edge id=":10858957293_0" function="internal">
        <lane id=":10858957293_0_0" index="0" disallow="tram rail_urban rail rail_electric rail_fast ship" speed="8.33" length="9.68" shape="2033.18,1341.89 2023.50,1341.73"/>
    </edge>
    <edge id=":10858957293_1" function="internal">
        <lane id=":10858957293_1_0" index="0" allow="pedestrian delivery bicycle" speed="6.68" length="3.64" shape="2033.18,1341.89 2029.77,1341.32 2029.62,1341.22"/>
    </edge>
    <edge id=":10858957293_7" function="internal">
        <lane id=":10858957293_7_0" index="0" allow="pedestrian delivery bicycle" speed="6.68" length="8.34" shape="2029.62,1341.22 2027.73,1339.82 2027.08,1337.37 2027.80,1333.99"/>
    </edge>
    <edge id=":10858957293_2" function="internal">
        <lane id=":10858957293_2_0" index="0" allow="pedestrian delivery bicycle" speed="4.77" length="5.45" shape="2030.81,1335.09 2030.48,1336.63 2030.77,1337.75 2031.70,1338.43 2033.25,1338.69"/>
    </edge>
    <edge id=":10858957293_3" function="internal">
        <lane id=":10858957293_3_0" index="0" allow="pedestrian delivery bicycle" speed="6.95" length="10.54" shape="2030.81,1335.09 2029.43,1338.01 2027.76,1340.08 2025.78,1341.32 2023.50,1341.73"/>
    </edge>
    <edge id=":10858957293_4" function="internal">
        <lane id=":10858957293_4_0" index="0" allow="pedestrian delivery bicycle" speed="3.65" length="4.67" shape="2030.81,1335.09 2029.64,1335.95 2028.75,1336.05 2028.14,1335.39 2027.80,1333.99"/>
    </edge>
    <edge id=":10858957293_5" function="internal">
        <lane id=":10858957293_5_0" index="0" allow="pedestrian delivery bicycle" speed="6.50" length="6.63" shape="2023.51,1338.53 2024.76,1338.25 2025.89,1337.40 2026.91,1335.98 2027.80,1333.99"/>
    </edge>
    <edge id=":10858957293_6" function="internal">
        <lane id=":10858957293_6_0" index="0" disallow="tram rail_urban rail rail_electric rail_fast ship" speed="8.33" length="9.75" shape="2023.51,1338.53 2033.25,1338.69"/>
    </edge>
    <edge id=":10858957294_0" function="internal">
        <lane id=":10858957294_0_0" index="0" allow="pedestrian delivery bicycle" speed="3.65" length="4.67" shape="2053.51,1285.96 2054.77,1285.26 2055.66,1285.27 2056.19,1285.99 2056.35,1287.43"/>
    </edge>
    <edge id=":10858963018_0" function="internal">
        <lane id=":10858963018_0_0" index="0" allow="pedestrian delivery bicycle" speed="3.65" length="4.67" shape="1975.35,1145.76 1974.48,1146.90 1973.65,1147.25 1972.88,1146.80 1972.16,1145.55"/>
    </edge>
    <edge id=":10858963019_0" function="internal">
        <lane id=":10858963019_0_0" index="0" allow="pedestrian delivery bicycle" speed="5.56" length="5.13" shape="1980.19,1119.13 1978.24,1123.88"/>
    </edge>
    <edge id=":10858963019_1" function="internal">
        <lane id=":10858963019_1_0" index="0" allow="pedestrian delivery bicycle" speed="3.65" length="1.44" shape="1980.19,1119.13 1978.99,1119.93"/>
    </edge>
    <edge id=":10858963019_4" function="internal">
        <lane id=":10858963019_4_0" index="0" allow="pedestrian delivery bicycle" speed="3.65" length="3.23" shape="1978.99,1119.93 1978.10,1119.99 1977.52,1119.31 1977.24,1117.90"/>
    </edge>
    <edge id=":10858963019_2" function="internal">
        <lane id=":10858963019_2_0" index="0" allow="pedestrian delivery bicycle" speed="5.56" length="5.41" shape="1975.16,1122.89 1977.24,1117.90"/>
    </edge>
    <edge id=":10858963019_3" function="internal">
        <lane id=":10858963019_3_0" index="0" allow="pedestrian delivery bicycle" speed="3.66" length="1.46" shape="1975.16,1122.89 1976.30,1121.98"/>
    </edge>
    <edge id=":10858963019_5" function="internal">
        <lane id=":10858963019_5_0" index="0" allow="pedestrian delivery bicycle" speed="3.66" length="3.27" shape="1976.30,1121.98 1977.20,1121.84 1977.84,1122.47 1978.24,1123.88"/>
    </edge>
    <edge id=":10858963020_0" function="internal">
        <lane id=":10858963020_0_0" index="0" allow="pedestrian delivery bicycle" speed="5.56" length="5.57" shape="1977.11,1126.89 1976.62,1128.47 1976.41,1129.58 1976.32,1130.71 1976.24,1132.36"/>
    </edge>
    <edge id=":10858963020_1" function="internal">
        <lane id=":10858963020_1_0" index="0" allow="pedestrian delivery bicycle" speed="3.65" length="1.44" shape="1977.11,1126.89 1975.97,1127.77"/>
    </edge>
    <edge id=":10858963020_4" function="internal">
        <lane id=":10858963020_4_0" index="0" allow="pedestrian delivery bicycle" speed="3.65" length="3.23" shape="1975.97,1127.77 1975.08,1127.89 1974.45,1127.25 1974.08,1125.86"/>
    </edge>
    <edge id=":10858963020_2" function="internal">
        <lane id=":10858963020_2_0" index="0" allow="pedestrian delivery bicycle" speed="5.56" length="6.41" shape="1973.04,1132.15 1973.15,1130.25 1973.26,1128.94 1973.52,1127.67 1974.08,1125.86"/>
    </edge>
    <edge id=":10858963020_3" function="internal">
        <lane id=":10858963020_3_0" index="0" allow="pedestrian delivery bicycle" speed="3.65" length="1.44" shape="1973.04,1132.15 1973.92,1131.01"/>
    </edge>
    <edge id=":10858963020_5" function="internal">
        <lane id=":10858963020_5_0" index="0" allow="pedestrian delivery bicycle" speed="3.65" length="3.23" shape="1973.92,1131.01 1974.75,1130.66 1975.52,1131.11 1976.24,1132.36"/>
    </edge>
    <edge id=":10874227092_0" function="internal">
        <lane id=":10874227092_0_0" index="0" disallow="tram rail_urban rail rail_electric rail_fast ship" speed="13.89" length="8.00" shape="1438.93,1079.26 1433.50,1085.13"/>
    </edge>
    <edge id=":10874227092_1" function="internal">
        <lane id=":10874227092_1_0" index="0" disallow="tram rail_urban rail rail_electric rail_fast ship" speed="13.89" length="8.40" shape="1431.15,1082.96 1432.46,1080.81 1432.69,1078.94 1432.93,1077.06 1434.23,1074.92"/>
        <lane id=":10874227092_1_1" index="1" disallow="tram rail_urban rail rail_electric rail_fast ship" speed="13.89" length="8.40" shape="1431.15,1082.96 1436.58,1077.09"/>
    </edge>
    <edge id=":10874227094_0" function="internal">
        <lane id=":10874227094_0_0" index="0" disallow="tram rail_urban rail rail_electric rail_fast ship" speed="13.89" length="8.41" shape="1380.16,1141.83 1378.83,1143.97 1378.56,1145.85 1378.29,1147.73 1376.94,1149.85"/>
        <lane id=":10874227094_0_1" index="1" disallow="tram rail_urban rail rail_electric rail_fast ship" speed="13.89" length="8.41" shape="1380.16,1141.83 1374.64,1147.63"/>
    </edge>
    <edge id=":10874227094_2" function="internal">
        <lane id=":10874227094_2_0" index="0" disallow="tram rail_urban rail rail_electric rail_fast ship" speed="13.89" length="7.97" shape="1372.33,1145.41 1377.83,1139.64"/>
    </edge>
    <edge id=":10947641380_0" function="internal">
        <lane id=":10947641380_0_0" index="0" allow="bicycle" speed="5.56" length="5.19" width="2.00" shape="1553.69,1148.50 1555.12,1149.03 1556.04,1149.54 1556.92,1150.14 1558.25,1150.92"/>
    </edge>
    <edge id=":10947641381_0" function="internal">
        <lane id=":10947641381_0_0" index="0" allow="bicycle" speed="5.56" length="5.07" width="2.00" shape="1721.48,1206.37 1726.10,1204.31"/>
    </edge>
    <edge id=":10947641402_0" function="internal">
        <lane id=":10947641402_0_0" index="0" allow="bicycle" speed="5.56" length="5.16" width="2.00" shape="1555.36,1156.95 1554.01,1156.23 1553.06,1155.77 1552.09,1155.38 1550.64,1154.87"/>
    </edge>
    <edge id=":10947641421_0" function="internal">
        <lane id=":10947641421_0_0" index="0" allow="bicycle" speed="5.56" length="5.14" width="2.00" shape="1729.19,1211.46 1727.82,1212.12 1726.86,1212.56 1725.89,1212.93 1724.43,1213.38"/>
    </edge>
    <edge id=":10947641424_0" function="internal">
        <lane id=":10947641424_0_0" index="0" disallow="tram rail_urban rail rail_electric rail_fast ship" speed="13.89" length="3.12" shape="1563.77,1113.31 1562.22,1110.61"/>
    </edge>
    <edge id=":10947641424_1" function="internal">
        <lane id=":10947641424_1_0" index="0" disallow="tram rail_urban rail rail_electric rail_fast ship" speed="13.89" length="3.13" shape="1565.00,1109.02 1566.55,1111.73"/>
    </edge>
    <edge id=":10961937694_0" function="internal">
        <lane id=":10961937694_0_0" index="0" disallow="tram rail_urban rail rail_electric rail_fast ship" speed="8.33" length="6.30" shape="1560.31,1123.20 1558.68,1124.10 1557.65,1124.86 1556.76,1125.80 1555.54,1127.22"/>
    </edge>
    <edge id=":10961937694_1" function="internal">
        <lane id=":10961937694_1_0" index="0" disallow="tram rail_urban rail rail_electric rail_fast ship" speed="3.65" length="4.67" shape="1560.31,1123.20 1558.87,1123.04 1558.15,1122.52 1558.13,1121.63 1558.82,1120.36"/>
    </edge>
    <edge id=":10961937694_2" function="internal">
        <lane id=":10961937694_2_0" index="0" disallow="tram rail_urban rail rail_electric rail_fast ship" speed="8.33" length="6.52" shape="1553.46,1124.02 1555.14,1123.10 1556.17,1122.26 1557.19,1121.38 1558.82,1120.36"/>
    </edge>
    <edge id=":10961937694_3" function="internal">
        <lane id=":10961937694_3_0" index="0" disallow="tram rail_urban rail rail_electric rail_fast ship" speed="5.08" length="9.49" shape="1553.46,1124.02 1556.52,1122.91 1557.89,1123.08 1557.57,1124.51 1555.54,1127.22"/>
    </edge>
    <edge id=":10961937695_0" function="internal">
        <lane id=":10961937695_0_0" index="0" allow="bicycle" speed="6.95" length="9.27" width="2.00" shape="1517.17,1148.72 1519.65,1147.58 1521.28,1146.58 1522.59,1145.21 1524.16,1142.98"/>
    </edge>
    <edge id=":10961937695_1" function="internal">
        <lane id=":10961937695_1_0" index="0" allow="bicycle" speed="5.56" length="10.10" width="2.00" shape="1517.17,1148.72 1519.92,1147.57 1521.88,1146.95 1523.91,1146.55 1526.87,1146.10"/>
    </edge>
    <edge id=":10961937695_2" function="internal">
        <lane id=":10961937695_2_0" index="0" disallow="tram rail_urban rail rail_electric rail_fast ship" speed="8.33" length="5.89" shape="1521.39,1148.22 1524.66,1143.32"/>
    </edge>
    <edge id=":10961937695_3" function="internal">
        <lane id=":10961937695_3_0" index="0" allow="bicycle" speed="6.95" length="5.69" width="2.00" shape="1521.89,1148.55 1522.67,1147.70 1523.75,1147.01 1525.15,1146.47 1526.87,1146.10"/>
    </edge>
    <edge id=":10961937696_0" function="internal">
        <lane id=":10961937696_0_0" index="0" disallow="tram rail_urban rail rail_electric rail_fast ship" speed="8.33" length="5.86" shape="1546.59,1127.30 1551.86,1124.73"/>
    </edge>
    <edge id=":10961937698_0" function="internal">
        <lane id=":10961937698_0_0" index="0" allow="bicycle" speed="4.71" length="4.05" width="2.00" shape="1549.05,1144.38 1548.92,1145.51 1549.16,1146.42 1549.76,1147.11 1550.72,1147.57"/>
    </edge>
    <edge id=":10961937698_1" function="internal">
        <lane id=":10961937698_1_0" index="0" disallow="tram rail_urban rail rail_electric rail_fast ship" speed="8.33" length="1.77" shape="1548.46,1144.23 1547.97,1145.94"/>
    </edge>