<routes>
	<trip id="route_E1_A2" depart="0" from="26249185#1" to="694116204#1" />
	<trip id="route_E1_A3" depart="0" from="26249185#1" to="331752492#2" />
	<trip id="route_E2_A1" depart="0" from="26249185#1" to="183419043#1" />
	<trip id="route_E2_A4" depart="0" from="26249185#1" to="60430429#1" />
	<trip id="route_E2_A5" depart="0" from="26249185#1" to="25973410#1" />
	<trip id="route_E2_A6" depart="0" from="26249185#1" to="-758088375#0" />
	<trip id="route_E2_A7" depart="0" from="26249185#1" to="23725458#1" />
	<trip id="route_E2_A8" depart="0" from="26249185#1" to="37177744#1" />
	<trip id="route_E2_A9" depart="0" from="26249185#1" to="-25497525" />
	<trip id="route_E2_A10" depart="0" from="26249185#1" to="25576697#0" />
	<trip id="route_E2_A11" depart="0" from="26249185#1" to="-89290458#1" />
	<trip id="route_E2_A12" depart="0" from="26249185#1" to="-23320502" />
	<trip id="route_E2_A13" depart="0" from="26249185#1" to="23320456#1" />
	<trip id="route_E2_A14" depart="0" from="26249185#1" to="-387296014#0" />
	<trip id="route_E2_A15" depart="0" from="26249185#1" to="394114218#1" />
	<trip id="route_E2_A16" depart="0" from="26249185#1" to="-1162834479#1" />
	<trip id="route_E2_A17" depart="0" from="26249185#1" to="208691154#1" />
	<trip id="route_E2_A18" depart="0" from="26249185#1" to="37181834#1" />
	<trip id="route_E3_A1" depart="0" from="921020465#1" to="183419043#1" />
	<trip id="route_E3_A2" depart="0" from="921020465#1" to="694116204#1" />
	<trip id="route_E4_A4" depart="0" from="921020465#1" to="60430429#1" />
	<trip id="route_E4_A5" depart="0" from="921020465#1" to="25973410#1" />
	<trip id="route_E4_A6" depart="0" from="921020465#1" to="-758088375#0" />
	<trip id="route_E4_A7" depart="0" from="921020465#1" to="23725458#1" />
	<trip id="route_E4_A8" depart="0" from="921020465#1" to="37177744#1" />
	<trip id="route_E4_A9" depart="0" from="921020465#1" to="-25497525" />
	<trip id="route_E4_A10" depart="0" from="921020465#1" to="25576697#0" />
	<trip id="route_E4_A11" depart="0" from="921020465#1" to="-89290458#1" />
	<trip id="route_E4_A12" depart="0" from="921020465#1" to="-23320502" />
	<trip id="route_E4_A13" depart="0" from="921020465#1" to="23320456#1" />
	<trip id="route_E4_A14" depart="0" from="921020465#1" to="-387296014#0" />
	<trip id="route_E4_A15" depart="0" from="921020465#1" to="394114218#1" />
	<trip id="route_E4_A16" depart="0" from="921020465#1" to="-1162834479#1" />
	<trip id="route_E4_A17" depart="0" from="921020465#1" to="208691154#1" />
	<trip id="route_E4_A18" depart="0" from="921020465#1" to="37181834#1" />
	<trip id="route_E5_A3" depart="0" from="921020465#1" to="331752492#2" />
	<trip id="route_E6_A2" depart="0" from="-1169441386" to="694116204#1" />
	<trip id="route_E6_A3" depart="0" from="-1169441386" to="331752492#2" />
	<trip id="route_E7_A1" depart="0" from="-1169441386" to="183419043#1" />
	<trip id="route_E7_A4" depart="0" from="-1169441386" to="60430429#1" />
	<trip id="route_E7_A5" depart="0" from="-1169441386" to="25973410#1" />
	<trip id="route_E7_A6" depart="0" from="-1169441386" to="-758088375#0" />
	<trip id="route_E7_A7" depart="0" from="-1169441386" to="23725458#1" />
	<trip id="route_E7_A8" depart="0" from="-1169441386" to="37177744#1" />
	<trip id="route_E7_A9" depart="0" from="-1169441386" to="-25497525" />
	<trip id="route_E7_A10" depart="0" from="-1169441386" to="25576697#0" />
	<trip id="route_E7_A11" depart="0" from="-1169441386" to="-89290458#1" />
	<trip id="route_E7_A12" depart="0" from="-1169441386" to="-23320502" />
	<trip id="route_E7_A13" depart="0" from="-1169441386" to="23320456#1" />
	<trip id="route_E7_A14" depart="0" from="-1169441386" to="-387296014#0" />
	<trip id="route_E7_A15" depart="0" from="-1169441386" to="394114218#1" />
	<trip id="route_E7_A16" depart="0" from="-1169441386" to="-1162834479#1" />
	<trip id="route_E7_A17" depart="0" from="-1169441386" to="208691154#1" />
	<trip id="route_E7_A18" depart="0" from="-1169441386" to="37181834#1" />
	<trip id="route_E8_A1" depart="0" from="-60430429#1" to="183419043#1" />
	<trip id="route_E8_A2" depart="0" from="-60430429#1" to="694116204#1" />
	<trip id="route_E8_A5" depart="0" from="-60430429#1" to="25973410#1" />
	<trip id="route_E8_A6" depart="0" from="-60430429#1" to="-758088375#0" />
	<trip id="route_E8_A7" depart="0" from="-60430429#1" to="23725458#1" />
	<trip id="route_E8_A8" depart="0" from="-60430429#1" to="37177744#1" />
	<trip id="route_E8_A9" depart="0" from="-60430429#1" to="-25497525" />
	<trip id="route_E8_A10" depart="0" from="-60430429#1" to="25576697#0" />
	<trip id="route_E8_A11" depart="0" from="-60430429#1" to="-89290458#1" />
	<trip id="route_E8_A12" depart="0" from="-60430429#1" to="-23320502" />
	<trip id="route_E8_A13" depart="0" from="-60430429#1" to="23320456#1" />
	<trip id="route_E8_A14" depart="0" from="-60430429#1" to="-387296014#0" />
	<trip id="route_E8_A15" depart="0" from="-60430429#1" to="394114218#1" />
	<trip id="route_E8_A16" depart="0" from="-60430429#1" to="-1162834479#1" />
	<trip id="route_E8_A17" depart="0" from="-60430429#1" to="208691154#1" />
	<trip id="route_E8_A18" depart="0" from="-60430429#1" to="37181834#1" />
	<trip id="route_E9_A1" depart="0" from="-25973410#1" to="183419043#1" />
	<trip id="route_E9_A2" depart="0" from="-25973410#1" to="694116204#1" />
	<trip id="route_E9_A4" depart="0" from="-25973410#1" to="60430429#1" />
	<trip id="route_E9_A6" depart="0" from="-25973410#1" to="-758088375#0" />
	<trip id="route_E9_A7" depart="0" from="-25973410#1" to="23725458#1" />
	<trip id="route_E9_A8" depart="0" from="-25973410#1" to="37177744#1" />
	<trip id="route_E9_A9" depart="0" from="-25973410#1" to="-25497525" />
	<trip id="route_E9_A10" depart="0" from="-25973410#1" to="25576697#0" />
	<trip id="route_E9_A11" depart="0" from="-25973410#1" to="-89290458#1" />
	<trip id="route_E9_A12" depart="0" from="-25973410#1" to="-23320502" />
	<trip id="route_E9_A13" depart="0" from="-25973410#1" to="23320456#1" />
	<trip id="route_E9_A14" depart="0" from="-25973410#1" to="-387296014#0" />
	<trip id="route_E9_A15" depart="0" from="-25973410#1" to="394114218#1" />
	<trip id="route_E9_A16" depart="0" from="-25973410#1" to="-1162834479#1" />
	<trip id="route_E9_A17" depart="0" from="-25973410#1" to="208691154#1" />
	<trip id="route_E9_A18" depart="0" from="-25973410#1" to="37181834#1" />
	<trip id="route_E10_A6" depart="0" from="758088375#0" to="-758088375#0" />
	<trip id="route_E10_A1" depart="0" from="758088375#0" to="183419043#1" />
	<trip id="route_E10_A2" depart="0" from="758088375#0" to="694116204#1" />
	<trip id="route_E10_A4" depart="0" from="758088375#0" to="60430429#1" />
	<trip id="route_E11_A5" depart="0" from="758088375#0" to="25973410#1" />
	<trip id="route_E11_A7" depart="0" from="758088375#0" to="23725458#1" />
	<trip id="route_E11_A8" depart="0" from="758088375#0" to="37177744#1" />
	<trip id="route_E11_A9" depart="0" from="758088375#0" to="-25497525" />
	<trip id="route_E11_A10" depart="0" from="758088375#0" to="25576697#0" />
	<trip id="route_E11_A11" depart="0" from="758088375#0" to="-89290458#1" />
	<trip id="route_E11_A12" depart="0" from="758088375#0" to="-23320502" />
	<trip id="route_E11_A13" depart="0" from="758088375#0" to="23320456#1" />
	<trip id="route_E11_A14" depart="0" from="758088375#0" to="-387296014#0" />
	<trip id="route_E11_A15" depart="0" from="758088375#0" to="394114218#1" />
	<trip id="route_E11_A16" depart="0" from="758088375#0" to="-1162834479#1" />
	<trip id="route_E11_A17" depart="0" from="758088375#0" to="208691154#1" />
	<trip id="route_E11_A18" depart="0" from="758088375#0" to="37181834#1" />
	<trip id="route_E12_A8" depart="0" from="-23725458#2" to="37177744#1" />
	<trip id="route_E12_A9" depart="0" from="-23725458#2" to="-25497525" />
	<trip id="route_E12_A10" depart="0" from="-23725458#2" to="25576697#0" />
	<trip id="route_E12_A11" depart="0" from="-23725458#2" to="-89290458#1" />
	<trip id="route_E12_A12" depart="0" from="-23725458#2" to="-23320502" />
	<trip id="route_E12_A13" depart="0" from="-23725458#2" to="23320456#1" />
	<trip id="route_E12_A14" depart="0" from="-23725458#2" to="-387296014#0" />
	<trip id="route_E12_A15" depart="0" from="-23725458#2" to="394114218#1" />
	<trip id="route_E12_A16" depart="0" from="-23725458#2" to="-1162834479#1" />
	<trip id="route_E12_A17" depart="0" from="-23725458#2" to="208691154#1" />
	<trip id="route_E12_A18" depart="0" from="-23725458#2" to="37181834#1" />
	<trip id="route_E13_A5" depart="0" from="-23725458#2" to="25973410#1" />
	<trip id="route_E13_A6" depart="0" from="-23725458#2" to="-758088375#0" />
	<trip id="route_E13_A4" depart="0" from="-23725458#2" to="60430429#1" />
	<trip id="route_E13_A1" depart="0" from="-23725458#2" to="183419043#1" />
	<trip id="route_E13_A2" depart="0" from="-23725458#2" to="694116204#1" />
	<trip id="route_E14_A9" depart="0" from="25497525" to="-25497525" />
	<trip id="route_E14_A8" depart="0" from="25497525" to="37177744#1" />
	<trip id="route_E14_A7" depart="0" from="25497525" to="23725458#1" />
	<trip id="route_E14_A5" depart="0" from="25497525" to="25973410#1" />
	<trip id="route_E14_A6" depart="0" from="25497525" to="-758088375#0" />
	<trip id="route_E14_A4" depart="0" from="25497525" to="60430429#1" />
	<trip id="route_E14_A1" depart="0" from="25497525" to="183419043#1" />
	<trip id="route_E14_A2" depart="0" from="25497525" to="694116204#1" />
	<trip id="route_E14_A10" depart="0" from="25497525" to="25576697#0" />
	<trip id="route_E14_A11" depart="0" from="25497525" to="-89290458#1" />
	<trip id="route_E14_A12" depart="0" from="25497525" to="-23320502" />
	<trip id="route_E14_A13" depart="0" from="25497525" to="23320456#1" />
	<trip id="route_E14_A14" depart="0" from="25497525" to="-387296014#0" />
	<trip id="route_E14_A15" depart="0" from="25497525" to="394114218#1" />
	<trip id="route_E14_A16" depart="0" from="25497525" to="-1162834479#1" />
	<trip id="route_E14_A17" depart="0" from="25497525" to="208691154#1" />
	<trip id="route_E14_A18" depart="0" from="25497525" to="37181834#1" />
	<trip id="route_E15_A9" depart="0" from="-25576697#0" to="-25497525" />
	<trip id="route_E15_A8" depart="0" from="-25576697#0" to="37177744#1" />
	<trip id="route_E15_A7" depart="0" from="-25576697#0" to="23725458#1" />
	<trip id="route_E15_A5" depart="0" from="-25576697#0" to="25973410#1" />
	<trip id="route_E15_A6" depart="0" from="-25576697#0" to="-758088375#0" />
	<trip id="route_E15_A4" depart="0" from="-25576697#0" to="60430429#1" />
	<trip id="route_E15_A1" depart="0" from="-25576697#0" to="183419043#1" />
	<trip id="route_E15_A2" depart="0" from="-25576697#0" to="694116204#1" />
	<trip id="route_E15_A10" depart="0" from="-25576697#0" to="25576697#0" />
	<trip id="route_E15_A11" depart="0" from="-25576697#0" to="-89290458#1" />
	<trip id="route_E15_A12" depart="0" from="-25576697#0" to="-23320502" />
	<trip id="route_E15_A13" depart="0" from="-25576697#0" to="23320456#1" />
	<trip id="route_E15_A14" depart="0" from="-25576697#0" to="-387296014#0" />
	<trip id="route_E15_A15" depart="0" from="-25576697#0" to="394114218#1" />
	<trip id="route_E15_A16" depart="0" from="-25576697#0" to="-1162834479#1" />
	<trip id="route_E15_A17" depart="0" from="-25576697#0" to="208691154#1" />
	<trip id="route_E15_A18" depart="0" from="-25576697#0" to="37181834#1" />
	<trip id="route_E16_A9" depart="0" from="89290458#1" to="-25497525" />
	<trip id="route_E16_A8" depart="0" from="89290458#1" to="37177744#1" />
	<trip id="route_E16_A7" depart="0" from="89290458#1" to="23725458#1" />
	<trip id="route_E16_A5" depart="0" from="89290458#1" to="25973410#1" />
	<trip id="route_E16_A6" depart="0" from="89290458#1" to="-758088375#0" />
	<trip id="route_E16_A4" depart="0" from="89290458#1" to="60430429#1" />
	<trip id="route_E16_A1" depart="0" from="89290458#1" to="183419043#1" />
	<trip id="route_E16_A2" depart="0" from="89290458#1" to="694116204#1" />
	<trip id="route_E16_A10" depart="0" from="89290458#1" to="25576697#0" />
	<trip id="route_E16_A11" depart="0" from="89290458#1" to="-89290458#1" />
	<trip id="route_E16_A12" depart="0" from="89290458#1" to="-23320502" />
	<trip id="route_E16_A13" depart="0" from="89290458#1" to="23320456#1" />
	<trip id="route_E16_A14" depart="0" from="89290458#1" to="-387296014#0" />
	<trip id="route_E16_A15" depart="0" from="89290458#1" to="394114218#1" />
	<trip id="route_E16_A16" depart="0" from="89290458#1" to="-1162834479#1" />
	<trip id="route_E16_A17" depart="0" from="89290458#1" to="208691154#1" />
	<trip id="route_E16_A18" depart="0" from="89290458#1" to="37181834#1" />
	<trip id="route_E17_A9" depart="0" from="23320502" to="-25497525" />
	<trip id="route_E17_A8" depart="0" from="23320502" to="37177744#1" />
	<trip id="route_E17_A7" depart="0" from="23320502" to="23725458#1" />
	<trip id="route_E17_A5" depart="0" from="23320502" to="25973410#1" />
	<trip id="route_E17_A6" depart="0" from="23320502" to="-758088375#0" />
	<trip id="route_E17_A4" depart="0" from="23320502" to="60430429#1" />
	<trip id="route_E17_A1" depart="0" from="23320502" to="183419043#1" />
	<trip id="route_E17_A2" depart="0" from="23320502" to="694116204#1" />
	<trip id="route_E17_A10" depart="0" from="23320502" to="25576697#0" />
	<trip id="route_E17_A11" depart="0" from="23320502" to="-89290458#1" />
	<trip id="route_E17_A13" depart="0" from="23320502" to="23320456#1" />
	<trip id="route_E17_A14" depart="0" from="23320502" to="-387296014#0" />
	<trip id="route_E17_A15" depart="0" from="23320502" to="394114218#1" />
	<trip id="route_E17_A16" depart="0" from="23320502" to="-1162834479#1" />
	<trip id="route_E17_A17" depart="0" from="23320502" to="208691154#1" />
	<trip id="route_E17_A18" depart="0" from="23320502" to="37181834#1" />
	<trip id="route_E18_A13" depart="0" from="-23320456#1" to="23320456#1" />
	<trip id="route_E18_A15" depart="0" from="-23320456#1" to="394114218#1" />
	<trip id="route_E18_A16" depart="0" from="-23320456#1" to="-1162834479#1" />
	<trip id="route_E18_A17" depart="0" from="-23320456#1" to="208691154#1" />
	<trip id="route_E18_A18" depart="0" from="-23320456#1" to="37181834#1" />
	<trip id="route_E18_A12" depart="0" from="-23320456#1" to="-23320502" />
	<trip id="route_E18_A11" depart="0" from="-23320456#1" to="-89290458#1" />
	<trip id="route_E18_A10" depart="0" from="-23320456#1" to="25576697#0" />
	<trip id="route_E18_A9" depart="0" from="-23320456#1" to="-25497525" />
	<trip id="route_E18_A8" depart="0" from="-23320456#1" to="37177744#1" />
	<trip id="route_E18_A7" depart="0" from="-23320456#1" to="23725458#1" />
	<trip id="route_E18_A5" depart="0" from="-23320456#1" to="25973410#1" />
	<trip id="route_E18_A6" depart="0" from="-23320456#1" to="-758088375#0" />
	<trip id="route_E18_A4" depart="0" from="-23320456#1" to="60430429#1" />
	<trip id="route_E18_A1" depart="0" from="-23320456#1" to="183419043#1" />
	<trip id="route_E18_A2" depart="0" from="-23320456#1" to="694116204#1" />
	<trip id="route_E19_A13" depart="0" from="387296014#1" to="23320456#1" />
	<trip id="route_E19_A15" depart="0" from="387296014#1" to="394114218#1" />
	<trip id="route_E19_A16" depart="0" from="387296014#1" to="-1162834479#1" />
	<trip id="route_E19_A17" depart="0" from="387296014#1" to="208691154#1" />
	<trip id="route_E19_A18" depart="0" from="387296014#1" to="37181834#1" />
	<trip id="route_E19_A12" depart="0" from="387296014#1" to="-23320502" />
	<trip id="route_E19_A11" depart="0" from="387296014#1" to="-89290458#1" />
	<trip id="route_E19_A10" depart="0" from="387296014#1" to="25576697#0" />
	<trip id="route_E19_A9" depart="0" from="387296014#1" to="-25497525" />
	<trip id="route_E19_A8" depart="0" from="387296014#1" to="37177744#1" />
	<trip id="route_E19_A7" depart="0" from="387296014#1" to="23725458#1" />
	<trip id="route_E19_A5" depart="0" from="387296014#1" to="25973410#1" />
	<trip id="route_E19_A6" depart="0" from="387296014#1" to="-758088375#0" />
	<trip id="route_E19_A4" depart="0" from="387296014#1" to="60430429#1" />
	<trip id="route_E19_A1" depart="0" from="387296014#1" to="183419043#1" />
	<trip id="route_E19_A2" depart="0" from="387296014#1" to="694116204#1" />
	<trip id="route_E20_A13" depart="0" from="-394114218#1" to="23320456#1" />
	<trip id="route_E20_A14" depart="0" from="-394114218#1" to="-387296014#0" />
	<trip id="route_E20_A15" depart="0" from="-394114218#1" to="394114218#1" />
	<trip id="route_E20_A16" depart="0" from="-394114218#1" to="-1162834479#1" />
	<trip id="route_E20_A17" depart="0" from="-394114218#1" to="208691154#1" />
	<trip id="route_E20_A18" depart="0" from="-394114218#1" to="37181834#1" />
	<trip id="route_E20_A12" depart="0" from="-394114218#1" to="-23320502" />
	<trip id="route_E20_A11" depart="0" from="-394114218#1" to="-89290458#1" />
	<trip id="route_E20_A10" depart="0" from="-394114218#1" to="25576697#0" />
	<trip id="route_E20_A9" depart="0" from="-394114218#1" to="-25497525" />
	<trip id="route_E20_A8" depart="0" from="-394114218#1" to="37177744#1" />
	<trip id="route_E20_A7" depart="0" from="-394114218#1" to="23725458#1" />
	<trip id="route_E20_A5" depart="0" from="-394114218#1" to="25973410#1" />
	<trip id="route_E20_A6" depart="0" from="-394114218#1" to="-758088375#0" />
	<trip id="route_E20_A4" depart="0" from="-394114218#1" to="60430429#1" />
	<trip id="route_E20_A1" depart="0" from="-394114218#1" to="183419043#1" />
	<trip id="route_E20_A2" depart="0" from="-394114218#1" to="694116204#1" />
	<trip id="route_E21_A1" depart="0" from="1162834479#1" to="183419043#1" />
	<trip id="route_E21_A2" depart="0" from="1162834479#1" to="694116204#1" />
	<trip id="route_E21_A3" depart="0" from="1162834479#1" to="331752492#2" />
	<trip id="route_E21_A4" depart="0" from="1162834479#1" to="60430429#1" />
	<trip id="route_E21_A5" depart="0" from="1162834479#1" to="25973410#1" />
	<trip id="route_E21_A6" depart="0" from="1162834479#1" to="-758088375#0" />
	<trip id="route_E21_A7" depart="0" from="1162834479#1" to="23725458#1" />
	<trip id="route_E21_A8" depart="0" from="1162834479#1" to="37177744#1" />
	<trip id="route_E21_A9" depart="0" from="1162834479#1" to="-25497525" />
	<trip id="route_E21_A10" depart="0" from="1162834479#1" to="25576697#0" />
	<trip id="route_E21_A11" depart="0" from="1162834479#1" to="-89290458#1" />
	<trip id="route_E21_A12" depart="0" from="1162834479#1" to="-23320502" />
	<trip id="route_E21_A13" depart="0" from="1162834479#1" to="23320456#1" />
	<trip id="route_E21_A14" depart="0" from="1162834479#1" to="-387296014#0" />
	<trip id="route_E21_A15" depart="0" from="1162834479#1" to="394114218#1" />
	<trip id="route_E22_A17" depart="0" from="1162834479#1" to="208691154#1" />
	<trip id="route_E22_A18" depart="0" from="1162834479#1" to="37181834#1" />
	<trip id="route_E23_A9" depart="0" from="-208691154#0" to="-25497525" />
	<trip id="route_E23_A8" depart="0" from="-208691154#0" to="37177744#1" />
	<trip id="route_E23_A7" depart="0" from="-208691154#0" to="23725458#1" />
	<trip id="route_E23_A5" depart="0" from="-208691154#0" to="25973410#1" />
	<trip id="route_E23_A6" depart="0" from="-208691154#0" to="-758088375#0" />
	<trip id="route_E23_A4" depart="0" from="-208691154#0" to="60430429#1" />
	<trip id="route_E23_A1" depart="0" from="-208691154#0" to="183419043#1" />
	<trip id="route_E23_A2" depart="0" from="-208691154#0" to="694116204#1" />
	<trip id="route_E23_A10" depart="0" from="-208691154#0" to="25576697#0" />
	<trip id="route_E23_A11" depart="0" from="-208691154#0" to="-89290458#1" />
	<trip id="route_E23_A12" depart="0" from="-208691154#0" to="-23320502" />
	<trip id="route_E23_A13" depart="0" from="-208691154#0" to="23320456#1" />
	<trip id="route_E23_A14" depart="0" from="-208691154#0" to="-387296014#0" />
	<trip id="route_E23_A15" depart="0" from="-208691154#0" to="394114218#1" />
	<trip id="route_E23_A16" depart="0" from="-208691154#0" to="-1162834479#1" />
	<trip id="route_E23_A17" depart="0" from="-208691154#0" to="208691154#1" />
	<trip id="route_E23_A18" depart="0" from="-208691154#0" to="37181834#1" />
	<trip id="route_E24_A16" depart="0" from="-37181834#1" to="-1162834479#1" />
	<trip id="route_E25_A1" depart="0" from="-37181834#1" to="183419043#1" />
	<trip id="route_E25_A2" depart="0" from="-37181834#1" to="694116204#1" />
	<trip id="route_E25_A3" depart="0" from="-37181834#1" to="331752492#2" />
	<trip id="route_E25_A4" depart="0" from="-37181834#1" to="60430429#1" />
	<trip id="route_E25_A5" depart="0" from="-37181834#1" to="25973410#1" />
	<trip id="route_E25_A6" depart="0" from="-37181834#1" to="-758088375#0" />
	<trip id="route_E25_A7" depart="0" from="-37181834#1" to="23725458#1" />
	<trip id="route_E25_A8" depart="0" from="-37181834#1" to="37177744#1" />
	<trip id="route_E25_A9" depart="0" from="-37181834#1" to="-25497525" />
	<trip id="route_E25_A10" depart="0" from="-37181834#1" to="25576697#0" />
	<trip id="route_E25_A11" depart="0" from="-37181834#1" to="-89290458#1" />
	<trip id="route_E25_A12" depart="0" from="-37181834#1" to="-23320502" />
	<trip id="route_E25_A13" depart="0" from="-37181834#1" to="23320456#1" />
	<trip id="route_E25_A14" depart="0" from="-37181834#1" to="-387296014#0" />
	<trip id="route_E25_A15" depart="0" from="-37181834#1" to="394114218#1" />
	<trip id="route_E25_A17" depart="0" from="-37181834#1" to="208691154#1" />
</routes>