<?xml version="1.0" encoding="UTF-8"?>

<!-- generated on 2024-10-24 23:19:40 by Eclipse SUMO duarouter Version 1.19.0
<configuration xmlns:xsi="http://www.w3.org/2001/XMLSchema-instance" xsi:noNamespaceSchemaLocation="http://sumo.dlr.de/xsd/duarouterConfiguration.xsd">

    <input>
        <net-file value="C:\Users\kriehl\Desktop\esslingen_sumo\network_v2.net.xml"/>
        <route-files value="C:\Users\kriehl\Desktop\esslingen_sumo\4_generating_routes\2_Routes.xml"/>
    </input>

    <output>
        <output-file value="C:\Users\kriehl\Desktop\esslingen_sumo\4_generating_routes\3_duarouter_trips.xml"/>
    </output>

</configuration>
-->

<routes xmlns:xsi="http://www.w3.org/2001/XMLSchema-instance" xsi:noNamespaceSchemaLocation="http://sumo.dlr.de/xsd/routes_file.xsd">
    <vehicle id="route_E1_A2" depart="0.00">
        <route edges="26249185#1 26249185#3 694116204#0 694116204#1"/>
    </vehicle>
    <vehicle id="route_E1_A3" depart="0.00">
        <route edges="26249185#1 26249185#3 331752492#0 331752492#1 331752492#2"/>
    </vehicle>
    <vehicle id="route_E2_A1" depart="0.00">
        <route edges="26249185#1 26249185#3 183419043#0 183419043#1"/>
    </vehicle>
    <vehicle id="route_E2_A4" depart="0.00">
        <route edges="26249185#1 26249185#3 183049934 1164287131#0 60430429#1"/>
    </vehicle>
    <vehicle id="route_E2_A5" depart="0.00">
        <route edges="26249185#1 26249185#3 183049934 1164287131#0 183049933#0 25973410#1"/>
    </vehicle>
    <vehicle id="route_E2_A6" depart="0.00">
        <route edges="26249185#1 26249185#3 183049934 1164287131#0 183049933#0 -758088375#0"/>
    </vehicle>
    <vehicle id="route_E2_A7" depart="0.00">
        <route edges="26249185#1 26249185#3 183049934 1164287131#0 183049933#0 38361908#1 758088376#0 23725458#1"/>
    </vehicle>
    <vehicle id="route_E2_A8" depart="0.00">
        <route edges="26249185#1 26249185#3 183049934 1164287131#0 183049933#0 38361908#1 758088376#0 37177744#1"/>
    </vehicle>
    <vehicle id="route_E2_A9" depart="0.00">
        <route edges="26249185#1 26249185#3 183049934 1164287131#0 183049933#0 38361908#1 758088376#0 758088377#0 758088377#1 -25497525"/>
    </vehicle>
    <vehicle id="route_E2_A10" depart="0.00">
        <route edges="26249185#1 26249185#3 183049934 1164287131#0 183049933#0 38361908#1 758088376#0 758088377#0 758088377#1 758088377#2 22889927#0 25576697#0"/>
    </vehicle>
    <vehicle id="route_E2_A11" depart="0.00">
        <route edges="26249185#1 26249185#3 183049934 1164287131#0 183049933#0 38361908#1 758088376#0 758088377#0 758088377#1 758088377#2 22889927#0 22889927#2 -89290458#1"/>
    </vehicle>
    <vehicle id="route_E2_A12" depart="0.00">
        <route edges="26249185#1 26249185#3 183049934 1164287131#0 183049933#0 38361908#1 758088376#0 758088377#0 758088377#1 758088377#2 22889927#0 22889927#2 22889927#3 22889927#4 -23320502"/>
    </vehicle>
    <vehicle id="route_E2_A13" depart="0.00">
        <route edges="26249185#1 26249185#3 183049934 1164287131#0 183049933#0 38361908#1 758088376#0 758088377#0 758088377#1 758088377#2 22889927#0 22889927#2 22889927#3 22889927#4 387296014#0 387296014#1 23320456#1"/>
    </vehicle>
    <vehicle id="route_E2_A14" depart="0.00">
        <route edges="26249185#1 26249185#3 183049934 1164287131#0 183049933#0 38361908#1 758088376#0 758088377#0 758088377#1 758088377#2 22889927#0 22889927#2 22889927#3 22889927#4 387296014#0 -387296014#0"/>
    </vehicle>
    <vehicle id="route_E2_A15" depart="0.00">
        <route edges="26249185#1 26249185#3 183049934 1164287131#0 183049933#0 38361908#1 758088376#0 758088377#0 758088377#1 758088377#2 22889927#0 22889927#2 22889927#3 22889927#4 387296014#0 387296014#1 696225646#1 696225646#2 696225646#3 394114218#1"/>
    </vehicle>
    <vehicle id="route_E2_A16" depart="0.00">
        <route edges="26249185#1 26249185#3 183049934 1164287131#0 183049933#0 38361908#1 758088376#0 758088377#0 758088377#1 758088377#2 22889927#0 22889927#2 22889927#3 22889927#4 387296014#0 387296014#1 696225646#1 696225646#2 696225646#3 130569446 758088380#1 -758088379#0 -1162834479#1"/>
    </vehicle>
    <vehicle id="route_E2_A17" depart="0.00">
        <route edges="26249185#1 26249185#3 183049934 1164287131#0 183049933#0 38361908#1 758088376#0 758088377#0 758088377#1 758088377#2 22889927#0 22889927#2 22889927#3 22889927#4 387296014#0 387296014#1 696225646#1 696225646#2 696225646#3 130569446 758088380#1 758088378#0 208691154#0 208691154#1"/>
    </vehicle>
    <vehicle id="route_E2_A18" depart="0.00">
        <route edges="26249185#1 26249185#3 183049934 1164287131#0 183049933#0 38361908#1 758088376#0 758088377#0 758088377#1 758088377#2 22889927#0 22889927#2 22889927#3 22889927#4 387296014#0 387296014#1 696225646#1 696225646#2 696225646#3 130569446 758088380#1 758088378#0 758088378#1 37181834#0 37181834#1"/>
    </vehicle>
    <vehicle id="route_E3_A1" depart="0.00">
        <route edges="921020465#1 921020464#0 921020464#1 183419043#0 183419043#1"/>
    </vehicle>
    <vehicle id="route_E3_A2" depart="0.00">
        <route edges="921020465#1 921020464#0 921020464#1 694116204#0 694116204#1"/>
    </vehicle>
    <vehicle id="route_E4_A4" depart="0.00">
        <route edges="921020465#1 921020464#0 921020464#1 183049934 1164287131#0 60430429#1"/>
    </vehicle>
    <vehicle id="route_E4_A5" depart="0.00">
        <route edges="921020465#1 921020464#0 921020464#1 183049934 1164287131#0 183049933#0 25973410#1"/>
    </vehicle>
    <vehicle id="route_E4_A6" depart="0.00">
        <route edges="921020465#1 921020464#0 921020464#1 183049934 1164287131#0 183049933#0 -758088375#0"/>
    </vehicle>
    <vehicle id="route_E4_A7" depart="0.00">
        <route edges="921020465#1 921020464#0 921020464#1 183049934 1164287131#0 183049933#0 38361908#1 758088376#0 23725458#1"/>
    </vehicle>
    <vehicle id="route_E4_A8" depart="0.00">
        <route edges="921020465#1 921020464#0 921020464#1 183049934 1164287131#0 183049933#0 38361908#1 758088376#0 37177744#1"/>
    </vehicle>
    <vehicle id="route_E4_A9" depart="0.00">
        <route edges="921020465#1 921020464#0 921020464#1 183049934 1164287131#0 183049933#0 38361908#1 758088376#0 758088377#0 758088377#1 -25497525"/>
    </vehicle>
    <vehicle id="route_E4_A10" depart="0.00">
        <route edges="921020465#1 921020464#0 921020464#1 183049934 1164287131#0 183049933#0 38361908#1 758088376#0 758088377#0 758088377#1 758088377#2 22889927#0 25576697#0"/>
    </vehicle>
    <vehicle id="route_E4_A11" depart="0.00">
        <route edges="921020465#1 921020464#0 921020464#1 183049934 1164287131#0 183049933#0 38361908#1 758088376#0 758088377#0 758088377#1 758088377#2 22889927#0 22889927#2 -89290458#1"/>
    </vehicle>
    <vehicle id="route_E4_A12" depart="0.00">
        <route edges="921020465#1 921020464#0 921020464#1 183049934 1164287131#0 183049933#0 38361908#1 758088376#0 758088377#0 758088377#1 758088377#2 22889927#0 22889927#2 22889927#3 22889927#4 -23320502"/>
    </vehicle>
    <vehicle id="route_E4_A13" depart="0.00">
        <route edges="921020465#1 921020464#0 921020464#1 183049934 1164287131#0 183049933#0 38361908#1 758088376#0 758088377#0 758088377#1 758088377#2 22889927#0 22889927#2 22889927#3 22889927#4 387296014#0 387296014#1 23320456#1"/>
    </vehicle>
    <vehicle id="route_E4_A14" depart="0.00">
        <route edges="921020465#1 921020464#0 921020464#1 183049934 1164287131#0 183049933#0 38361908#1 758088376#0 758088377#0 758088377#1 758088377#2 22889927#0 22889927#2 22889927#3 22889927#4 387296014#0 -387296014#0"/>
    </vehicle>
    <vehicle id="route_E4_A15" depart="0.00">
        <route edges="921020465#1 921020464#0 921020464#1 183049934 1164287131#0 183049933#0 38361908#1 758088376#0 758088377#0 758088377#1 758088377#2 22889927#0 22889927#2 22889927#3 22889927#4 387296014#0 387296014#1 696225646#1 696225646#2 696225646#3 394114218#1"/>
    </vehicle>
    <vehicle id="route_E4_A16" depart="0.00">
        <route edges="921020465#1 921020464#0 921020464#1 183049934 1164287131#0 183049933#0 38361908#1 758088376#0 758088377#0 758088377#1 758088377#2 22889927#0 22889927#2 22889927#3 22889927#4 387296014#0 387296014#1 696225646#1 696225646#2 696225646#3 130569446 758088380#1 -758088379#0 -1162834479#1"/>
    </vehicle>
    <vehicle id="route_E4_A17" depart="0.00">
        <route edges="921020465#1 921020464#0 921020464#1 183049934 1164287131#0 183049933#0 38361908#1 758088376#0 758088377#0 758088377#1 758088377#2 22889927#0 22889927#2 22889927#3 22889927#4 387296014#0 387296014#1 696225646#1 696225646#2 696225646#3 130569446 758088380#1 758088378#0 208691154#0 208691154#1"/>
    </vehicle>
    <vehicle id="route_E4_A18" depart="0.00">
        <route edges="921020465#1 921020464#0 921020464#1 183049934 1164287131#0 183049933#0 38361908#1 758088376#0 758088377#0 758088377#1 758088377#2 22889927#0 22889927#2 22889927#3 22889927#4 387296014#0 387296014#1 696225646#1 696225646#2 696225646#3 130569446 758088380#1 758088378#0 758088378#1 37181834#0 37181834#1"/>
    </vehicle>
    <vehicle id="route_E5_A3" depart="0.00">
        <route edges="921020465#1 183049957#0 183049957#1 331752492#1 331752492#2"/>
    </vehicle>
    <vehicle id="route_E6_A2" depart="0.00">
        <route edges="-1169441386 -331752492#1 -331752492#0 694116204#0 694116204#1"/>
    </vehicle>
    <vehicle id="route_E6_A3" depart="0.00">
        <route edges="-1169441386 -331752492#1 -331752492#0 331752492#0 331752492#1 331752492#2"/>
    </vehicle>
    <vehicle id="route_E7_A1" depart="0.00">
        <route edges="-1169441386 -331752492#1 -331752492#0 183419043#0 183419043#1"/>
    </vehicle>
    <vehicle id="route_E7_A4" depart="0.00">
        <route edges="-1169441386 -331752492#1 -331752492#0 183049934 1164287131#0 60430429#1"/>
    </vehicle>
    <vehicle id="route_E7_A5" depart="0.00">
        <route edges="-1169441386 -331752492#1 -331752492#0 183049934 1164287131#0 183049933#0 25973410#1"/>
    </vehicle>
    <vehicle id="route_E7_A6" depart="0.00">
        <route edges="-1169441386 -331752492#1 -331752492#0 183049934 1164287131#0 183049933#0 -758088375#0"/>
    </vehicle>
    <vehicle id="route_E7_A7" depart="0.00">
        <route edges="-1169441386 -331752492#1 -331752492#0 183049934 1164287131#0 183049933#0 38361908#1 758088376#0 23725458#1"/>
    </vehicle>
    <vehicle id="route_E7_A8" depart="0.00">
        <route edges="-1169441386 -331752492#1 -331752492#0 183049934 1164287131#0 183049933#0 38361908#1 758088376#0 37177744#1"/>
    </vehicle>
    <vehicle id="route_E7_A9" depart="0.00">
        <route edges="-1169441386 -331752492#1 -331752492#0 183049934 1164287131#0 183049933#0 38361908#1 758088376#0 758088377#0 758088377#1 -25497525"/>
    </vehicle>
    <vehicle id="route_E7_A10" depart="0.00">
        <route edges="-1169441386 -331752492#1 -331752492#0 183049934 1164287131#0 183049933#0 38361908#1 758088376#0 758088377#0 758088377#1 758088377#2 22889927#0 25576697#0"/>
    </vehicle>
    <vehicle id="route_E7_A11" depart="0.00">
        <route edges="-1169441386 -331752492#1 -331752492#0 183049934 1164287131#0 183049933#0 38361908#1 758088376#0 758088377#0 758088377#1 758088377#2 22889927#0 22889927#2 -89290458#1"/>
    </vehicle>
    <vehicle id="route_E7_A12" depart="0.00">
        <route edges="-1169441386 -331752492#1 -331752492#0 183049934 1164287131#0 183049933#0 38361908#1 758088376#0 758088377#0 758088377#1 758088377#2 22889927#0 22889927#2 22889927#3 22889927#4 -23320502"/>
    </vehicle>
    <vehicle id="route_E7_A13" depart="0.00">
        <route edges="-1169441386 -331752492#1 -331752492#0 183049934 1164287131#0 183049933#0 38361908#1 758088376#0 758088377#0 758088377#1 758088377#2 22889927#0 22889927#2 22889927#3 22889927#4 387296014#0 387296014#1 23320456#1"/>
    </vehicle>
    <vehicle id="route_E7_A14" depart="0.00">
        <route edges="-1169441386 -331752492#1 -331752492#0 183049934 1164287131#0 183049933#0 38361908#1 758088376#0 758088377#0 758088377#1 758088377#2 22889927#0 22889927#2 22889927#3 22889927#4 387296014#0 -387296014#0"/>
    </vehicle>
    <vehicle id="route_E7_A15" depart="0.00">
        <route edges="-1169441386 -331752492#1 -331752492#0 183049934 1164287131#0 183049933#0 38361908#1 758088376#0 758088377#0 758088377#1 758088377#2 22889927#0 22889927#2 22889927#3 22889927#4 387296014#0 387296014#1 696225646#1 696225646#2 696225646#3 394114218#1"/>
    </vehicle>
    <vehicle id="route_E7_A16" depart="0.00">
        <route edges="-1169441386 -331752492#1 -331752492#0 183049934 1164287131#0 183049933#0 38361908#1 758088376#0 758088377#0 758088377#1 758088377#2 22889927#0 22889927#2 22889927#3 22889927#4 387296014#0 387296014#1 696225646#1 696225646#2 696225646#3 130569446 758088380#1 -758088379#0 -1162834479#1"/>
    </vehicle>
    <vehicle id="route_E7_A17" depart="0.00">
        <route edges="-1169441386 -331752492#1 -331752492#0 183049934 1164287131#0 183049933#0 38361908#1 758088376#0 758088377#0 758088377#1 758088377#2 22889927#0 22889927#2 22889927#3 22889927#4 387296014#0 387296014#1 696225646#1 696225646#2 696225646#3 130569446 758088380#1 758088378#0 208691154#0 208691154#1"/>
    </vehicle>
    <vehicle id="route_E7_A18" depart="0.00">
        <route edges="-1169441386 -331752492#1 -331752492#0 183049934 1164287131#0 183049933#0 38361908#1 758088376#0 758088377#0 758088377#1 758088377#2 22889927#0 22889927#2 22889927#3 22889927#4 387296014#0 387296014#1 696225646#1 696225646#2 696225646#3 130569446 758088380#1 758088378#0 758088378#1 37181834#0 37181834#1"/>
    </vehicle>
    <vehicle id="route_E8_A1" depart="0.00">
        <route edges="-60430429#1 -1164287131#1 38361907 183419043#0 183419043#1"/>
    </vehicle>
    <vehicle id="route_E8_A2" depart="0.00">
        <route edges="-60430429#1 -1164287131#1 38361907 694116204#0 694116204#1"/>
    </vehicle>
    <vehicle id="route_E8_A5" depart="0.00">
        <route edges="-60430429#1 183049933#0 25973410#1"/>
    </vehicle>
    <vehicle id="route_E8_A6" depart="0.00">
        <route edges="-60430429#1 183049933#0 -758088375#0"/>
    </vehicle>
    <vehicle id="route_E8_A7" depart="0.00">
        <route edges="-60430429#1 183049933#0 38361908#1 758088376#0 23725458#1"/>
    </vehicle>
    <vehicle id="route_E8_A8" depart="0.00">
        <route edges="-60430429#1 183049933#0 38361908#1 758088376#0 37177744#1"/>
    </vehicle>
    <vehicle id="route_E8_A9" depart="0.00">
        <route edges="-60430429#1 183049933#0 38361908#1 758088376#0 758088377#0 758088377#1 -25497525"/>
    </vehicle>
    <vehicle id="route_E8_A10" depart="0.00">
        <route edges="-60430429#1 183049933#0 38361908#1 758088376#0 758088377#0 758088377#1 758088377#2 22889927#0 25576697#0"/>
    </vehicle>
    <vehicle id="route_E8_A11" depart="0.00">
        <route edges="-60430429#1 183049933#0 38361908#1 758088376#0 758088377#0 758088377#1 758088377#2 22889927#0 22889927#2 -89290458#1"/>
    </vehicle>
    <vehicle id="route_E8_A12" depart="0.00">
        <route edges="-60430429#1 183049933#0 38361908#1 758088376#0 758088377#0 758088377#1 758088377#2 22889927#0 22889927#2 22889927#3 22889927#4 -23320502"/>
    </vehicle>
    <vehicle id="route_E8_A13" depart="0.00">
        <route edges="-60430429#1 183049933#0 38361908#1 758088376#0 758088377#0 758088377#1 758088377#2 22889927#0 22889927#2 22889927#3 22889927#4 387296014#0 387296014#1 23320456#1"/>
    </vehicle>
    <vehicle id="route_E8_A14" depart="0.00">
        <route edges="-60430429#1 183049933#0 38361908#1 758088376#0 758088377#0 758088377#1 758088377#2 22889927#0 22889927#2 22889927#3 22889927#4 387296014#0 -387296014#0"/>
    </vehicle>
    <vehicle id="route_E8_A15" depart="0.00">
        <route edges="-60430429#1 183049933#0 38361908#1 758088376#0 758088377#0 758088377#1 758088377#2 22889927#0 22889927#2 22889927#3 22889927#4 387296014#0 387296014#1 696225646#1 696225646#2 696225646#3 394114218#1"/>
    </vehicle>
    <vehicle id="route_E8_A16" depart="0.00">
        <route edges="-60430429#1 183049933#0 38361908#1 758088376#0 758088377#0 758088377#1 758088377#2 22889927#0 22889927#2 22889927#3 22889927#4 387296014#0 387296014#1 696225646#1 696225646#2 696225646#3 130569446 758088380#1 -758088379#0 -1162834479#1"/>
    </vehicle>
    <vehicle id="route_E8_A17" depart="0.00">
        <route edges="-60430429#1 183049933#0 38361908#1 758088376#0 758088377#0 758088377#1 758088377#2 22889927#0 22889927#2 22889927#3 22889927#4 387296014#0 387296014#1 696225646#1 696225646#2 696225646#3 130569446 758088380#1 758088378#0 208691154#0 208691154#1"/>
    </vehicle>
    <vehicle id="route_E8_A18" depart="0.00">
        <route edges="-60430429#1 183049933#0 38361908#1 758088376#0 758088377#0 758088377#1 758088377#2 22889927#0 22889927#2 22889927#3 22889927#4 387296014#0 387296014#1 696225646#1 696225646#2 696225646#3 130569446 758088380#1 758088378#0 758088378#1 37181834#0 37181834#1"/>
    </vehicle>
    <vehicle id="route_E9_A1" depart="0.00">
        <route edges="-25973410#1 -183049933#0 -1164287131#1 38361907 183419043#0 183419043#1"/>
    </vehicle>
    <vehicle id="route_E9_A2" depart="0.00">
        <route edges="-25973410#1 -183049933#0 -1164287131#1 38361907 694116204#0 694116204#1"/>
    </vehicle>
    <vehicle id="route_E9_A4" depart="0.00">
        <route edges="-25973410#1 -183049933#0 60430429#1"/>
    </vehicle>
    <vehicle id="route_E9_A6" depart="0.00">
        <route edges="-25973410#1 -758088375#0"/>
    </vehicle>
    <vehicle id="route_E9_A7" depart="0.00">
        <route edges="-25973410#1 38361908#1 758088376#0 23725458#1"/>
    </vehicle>
    <vehicle id="route_E9_A8" depart="0.00">
        <route edges="-25973410#1 38361908#1 758088376#0 37177744#1"/>
    </vehicle>
    <vehicle id="route_E9_A9" depart="0.00">
        <route edges="-25973410#1 38361908#1 758088376#0 758088377#0 758088377#1 -25497525"/>
    </vehicle>
    <vehicle id="route_E9_A10" depart="0.00">
        <route edges="-25973410#1 38361908#1 758088376#0 758088377#0 758088377#1 758088377#2 22889927#0 25576697#0"/>
    </vehicle>
    <vehicle id="route_E9_A11" depart="0.00">
        <route edges="-25973410#1 38361908#1 758088376#0 758088377#0 758088377#1 758088377#2 22889927#0 22889927#2 -89290458#1"/>
    </vehicle>
    <vehicle id="route_E9_A12" depart="0.00">
        <route edges="-25973410#1 38361908#1 758088376#0 758088377#0 758088377#1 758088377#2 22889927#0 22889927#2 22889927#3 22889927#4 -23320502"/>
    </vehicle>
    <vehicle id="route_E9_A13" depart="0.00">
        <route edges="-25973410#1 38361908#1 758088376#0 758088377#0 758088377#1 758088377#2 22889927#0 22889927#2 22889927#3 22889927#4 387296014#0 387296014#1 23320456#1"/>
    </vehicle>
    <vehicle id="route_E9_A14" depart="0.00">
        <route edges="-25973410#1 38361908#1 758088376#0 758088377#0 758088377#1 758088377#2 22889927#0 22889927#2 22889927#3 22889927#4 387296014#0 -387296014#0"/>
    </vehicle>
    <vehicle id="route_E9_A15" depart="0.00">
        <route edges="-25973410#1 38361908#1 758088376#0 758088377#0 758088377#1 758088377#2 22889927#0 22889927#2 22889927#3 22889927#4 387296014#0 387296014#1 696225646#1 696225646#2 696225646#3 394114218#1"/>
    </vehicle>
    <vehicle id="route_E9_A16" depart="0.00">
        <route edges="-25973410#1 38361908#1 758088376#0 758088377#0 758088377#1 758088377#2 22889927#0 22889927#2 22889927#3 22889927#4 387296014#0 387296014#1 696225646#1 696225646#2 696225646#3 130569446 758088380#1 -758088379#0 -1162834479#1"/>
    </vehicle>
    <vehicle id="route_E9_A17" depart="0.00">
        <route edges="-25973410#1 38361908#1 758088376#0 758088377#0 758088377#1 758088377#2 22889927#0 22889927#2 22889927#3 22889927#4 387296014#0 387296014#1 696225646#1 696225646#2 696225646#3 130569446 758088380#1 758088378#0 208691154#0 208691154#1"/>
    </vehicle>
    <vehicle id="route_E9_A18" depart="0.00">
        <route edges="-25973410#1 38361908#1 758088376#0 758088377#0 758088377#1 758088377#2 22889927#0 22889927#2 22889927#3 22889927#4 387296014#0 387296014#1 696225646#1 696225646#2 696225646#3 130569446 758088380#1 758088378#0 758088378#1 37181834#0 37181834#1"/>
    </vehicle>
    <vehicle id="route_E10_A6" depart="0.00">
        <route edges="758088375#0 -758088375#0"/>
    </vehicle>
    <vehicle id="route_E10_A1" depart="0.00">
        <route edges="758088375#0 -183049933#0 -1164287131#1 38361907 183419043#0 183419043#1"/>
    </vehicle>
    <vehicle id="route_E10_A2" depart="0.00">
        <route edges="758088375#0 -183049933#0 -1164287131#1 38361907 694116204#0 694116204#1"/>
    </vehicle>
    <vehicle id="route_E10_A4" depart="0.00">
        <route edges="758088375#0 -183049933#0 60430429#1"/>
    </vehicle>
    <vehicle id="route_E11_A5" depart="0.00">
        <route edges="758088375#0 25973410#1"/>
    </vehicle>
    <vehicle id="route_E11_A7" depart="0.00">
        <route edges="758088375#0 38361908#1 758088376#0 23725458#1"/>
    </vehicle>
    <vehicle id="route_E11_A8" depart="0.00">
        <route edges="758088375#0 38361908#1 758088376#0 37177744#1"/>
    </vehicle>
    <vehicle id="route_E11_A9" depart="0.00">
        <route edges="758088375#0 38361908#1 758088376#0 758088377#0 758088377#1 -25497525"/>
    </vehicle>
    <vehicle id="route_E11_A10" depart="0.00">
        <route edges="758088375#0 38361908#1 758088376#0 758088377#0 758088377#1 758088377#2 22889927#0 25576697#0"/>
    </vehicle>
    <vehicle id="route_E11_A11" depart="0.00">
        <route edges="758088375#0 38361908#1 758088376#0 758088377#0 758088377#1 758088377#2 22889927#0 22889927#2 -89290458#1"/>
    </vehicle>
    <vehicle id="route_E11_A12" depart="0.00">
        <route edges="758088375#0 38361908#1 758088376#0 758088377#0 758088377#1 758088377#2 22889927#0 22889927#2 22889927#3 22889927#4 -23320502"/>
    </vehicle>
    <vehicle id="route_E11_A13" depart="0.00">
        <route edges="758088375#0 38361908#1 758088376#0 758088377#0 758088377#1 758088377#2 22889927#0 22889927#2 22889927#3 22889927#4 387296014#0 387296014#1 23320456#1"/>
    </vehicle>
    <vehicle id="route_E11_A14" depart="0.00">
        <route edges="758088375#0 38361908#1 758088376#0 758088377#0 758088377#1 758088377#2 22889927#0 22889927#2 22889927#3 22889927#4 387296014#0 -387296014#0"/>
    </vehicle>
    <vehicle id="route_E11_A15" depart="0.00">
        <route edges="758088375#0 38361908#1 758088376#0 758088377#0 758088377#1 758088377#2 22889927#0 22889927#2 22889927#3 22889927#4 387296014#0 387296014#1 696225646#1 696225646#2 696225646#3 394114218#1"/>
    </vehicle>
    <vehicle id="route_E11_A16" depart="0.00">
        <route edges="758088375#0 38361908#1 758088376#0 758088377#0 758088377#1 758088377#2 22889927#0 22889927#2 22889927#3 22889927#4 387296014#0 387296014#1 696225646#1 696225646#2 696225646#3 130569446 758088380#1 -758088379#0 -1162834479#1"/>
    </vehicle>
    <vehicle id="route_E11_A17" depart="0.00">
        <route edges="758088375#0 38361908#1 758088376#0 758088377#0 758088377#1 758088377#2 22889927#0 22889927#2 22889927#3 22889927#4 387296014#0 387296014#1 696225646#1 696225646#2 696225646#3 130569446 758088380#1 758088378#0 208691154#0 208691154#1"/>
    </vehicle>
    <vehicle id="route_E11_A18" depart="0.00">
        <route edges="758088375#0 38361908#1 758088376#0 758088377#0 758088377#1 758088377#2 22889927#0 22889927#2 22889927#3 22889927#4 387296014#0 387296014#1 696225646#1 696225646#2 696225646#3 130569446 758088380#1 758088378#0 758088378#1 37181834#0 37181834#1"/>
    </vehicle>
    <vehicle id="route_E12_A8" depart="0.00">
        <route edges="-23725458#2 37177744#1"/>
    </vehicle>
    <vehicle id="route_E12_A9" depart="0.00">
        <route edges="-23725458#2 758088377#0 758088377#1 -25497525"/>
    </vehicle>
    <vehicle id="route_E12_A10" depart="0.00">
        <route edges="-23725458#2 758088377#0 758088377#1 758088377#2 22889927#0 25576697#0"/>
    </vehicle>
    <vehicle id="route_E12_A11" depart="0.00">
        <route edges="-23725458#2 758088377#0 758088377#1 758088377#2 22889927#0 22889927#2 -89290458#1"/>
    </vehicle>
    <vehicle id="route_E12_A12" depart="0.00">
        <route edges="-23725458#2 758088377#0 758088377#1 758088377#2 22889927#0 22889927#2 22889927#3 22889927#4 -23320502"/>
    </vehicle>
    <vehicle id="route_E12_A13" depart="0.00">
        <route edges="-23725458#2 758088377#0 758088377#1 758088377#2 22889927#0 22889927#2 22889927#3 22889927#4 387296014#0 387296014#1 23320456#1"/>
    </vehicle>
    <vehicle id="route_E12_A14" depart="0.00">
        <route edges="-23725458#2 758088377#0 758088377#1 758088377#2 22889927#0 22889927#2 22889927#3 22889927#4 387296014#0 -387296014#0"/>
    </vehicle>
    <vehicle id="route_E12_A15" depart="0.00">
        <route edges="-23725458#2 758088377#0 758088377#1 758088377#2 22889927#0 22889927#2 22889927#3 22889927#4 387296014#0 387296014#1 696225646#1 696225646#2 696225646#3 394114218#1"/>
    </vehicle>
    <vehicle id="route_E12_A16" depart="0.00">
        <route edges="-23725458#2 758088377#0 758088377#1 758088377#2 22889927#0 22889927#2 22889927#3 22889927#4 387296014#0 387296014#1 696225646#1 696225646#2 696225646#3 130569446 758088380#1 -758088379#0 -1162834479#1"/>
    </vehicle>
    <vehicle id="route_E12_A17" depart="0.00">
        <route edges="-23725458#2 758088377#0 758088377#1 758088377#2 22889927#0 22889927#2 22889927#3 22889927#4 387296014#0 387296014#1 696225646#1 696225646#2 696225646#3 130569446 758088380#1 758088378#0 208691154#0 208691154#1"/>
    </vehicle>
    <vehicle id="route_E12_A18" depart="0.00">
        <route edges="-23725458#2 758088377#0 758088377#1 758088377#2 22889927#0 22889927#2 22889927#3 22889927#4 387296014#0 387296014#1 696225646#1 696225646#2 696225646#3 130569446 758088380#1 758088378#0 758088378#1 37181834#0 37181834#1"/>
    </vehicle>
    <vehicle id="route_E13_A5" depart="0.00">
        <route edges="-23725458#2 -758088376#0 -38361908#1 25973410#1"/>
    </vehicle>
    <vehicle id="route_E13_A6" depart="0.00">
        <route edges="-23725458#2 -758088376#0 -38361908#1 -758088375#0"/>
    </vehicle>
    <vehicle id="route_E13_A4" depart="0.00">
        <route edges="-23725458#2 -758088376#0 -38361908#1 -183049933#0 60430429#1"/>
    </vehicle>
    <vehicle id="route_E13_A1" depart="0.00">
        <route edges="-23725458#2 -758088376#0 -38361908#1 -183049933#0 -1164287131#1 38361907 183419043#0 183419043#1"/>
    </vehicle>
    <vehicle id="route_E13_A2" depart="0.00">
        <route edges="-23725458#2 -758088376#0 -38361908#1 -183049933#0 -1164287131#1 38361907 694116204#0 694116204#1"/>
    </vehicle>
    <vehicle id="route_E14_A9" depart="0.00">
        <route edges="25497525 -25497525"/>
    </vehicle>
    <vehicle id="route_E14_A8" depart="0.00">
        <route edges="25497525 -758088377#1 -758088377#0 37177744#1"/>
    </vehicle>
    <vehicle id="route_E14_A7" depart="0.00">
        <route edges="25497525 -758088377#1 -758088377#0 23725458#1"/>
    </vehicle>
    <vehicle id="route_E14_A5" depart="0.00">
        <route edges="25497525 -758088377#1 -758088377#0 -758088376#0 -38361908#1 25973410#1"/>
    </vehicle>
    <vehicle id="route_E14_A6" depart="0.00">
        <route edges="25497525 -758088377#1 -758088377#0 -758088376#0 -38361908#1 -758088375#0"/>
    </vehicle>
    <vehicle id="route_E14_A4" depart="0.00">
        <route edges="25497525 -758088377#1 -758088377#0 -758088376#0 -38361908#1 -183049933#0 60430429#1"/>
    </vehicle>
    <vehicle id="route_E14_A1" depart="0.00">
        <route edges="25497525 -758088377#1 -758088377#0 -758088376#0 -38361908#1 -183049933#0 -1164287131#1 38361907 183419043#0 183419043#1"/>
    </vehicle>
    <vehicle id="route_E14_A2" depart="0.00">
        <route edges="25497525 -758088377#1 -758088377#0 -758088376#0 -38361908#1 -183049933#0 -1164287131#1 38361907 694116204#0 694116204#1"/>
    </vehicle>
    <vehicle id="route_E14_A10" depart="0.00">
        <route edges="25497525 758088377#2 22889927#0 25576697#0"/>
    </vehicle>
    <vehicle id="route_E14_A11" depart="0.00">
        <route edges="25497525 758088377#2 22889927#0 22889927#2 -89290458#1"/>
    </vehicle>
    <vehicle id="route_E14_A12" depart="0.00">
        <route edges="25497525 758088377#2 22889927#0 22889927#2 22889927#3 22889927#4 -23320502"/>
    </vehicle>
    <vehicle id="route_E14_A13" depart="0.00">
        <route edges="25497525 758088377#2 22889927#0 22889927#2 22889927#3 22889927#4 387296014#0 387296014#1 23320456#1"/>
    </vehicle>
    <vehicle id="route_E14_A14" depart="0.00">
        <route edges="25497525 758088377#2 22889927#0 22889927#2 22889927#3 22889927#4 387296014#0 -387296014#0"/>
    </vehicle>
    <vehicle id="route_E14_A15" depart="0.00">
        <route edges="25497525 758088377#2 22889927#0 22889927#2 22889927#3 22889927#4 387296014#0 387296014#1 696225646#1 696225646#2 696225646#3 394114218#1"/>
    </vehicle>
    <vehicle id="route_E14_A16" depart="0.00">
        <route edges="25497525 758088377#2 22889927#0 22889927#2 22889927#3 22889927#4 387296014#0 387296014#1 696225646#1 696225646#2 696225646#3 130569446 758088380#1 -758088379#0 -1162834479#1"/>
    </vehicle>
    <vehicle id="route_E14_A17" depart="0.00">
        <route edges="25497525 758088377#2 22889927#0 22889927#2 22889927#3 22889927#4 387296014#0 387296014#1 696225646#1 696225646#2 696225646#3 130569446 758088380#1 758088378#0 208691154#0 208691154#1"/>
    </vehicle>
    <vehicle id="route_E14_A18" depart="0.00">
        <route edges="25497525 758088377#2 22889927#0 22889927#2 22889927#3 22889927#4 387296014#0 387296014#1 696225646#1 696225646#2 696225646#3 130569446 758088380#1 758088378#0 758088378#1 37181834#0 37181834#1"/>
    </vehicle>
    <vehicle id="route_E15_A9" depart="0.00">
        <route edges="-25576697#0 -22889927#0 -758088377#2 -25497525"/>
    </vehicle>
    <vehicle id="route_E15_A8" depart="0.00">
        <route edges="-25576697#0 -22889927#0 -758088377#2 -758088377#1 -758088377#0 37177744#1"/>