<?xml version="1.0" encoding="UTF-8"?>

<!-- generated on 2024-10-24 23:18:59 by Eclipse SUMO netedit Version 1.19.0
<configuration xmlns:xsi="http://www.w3.org/2001/XMLSchema-instance" xsi:noNamespaceSchemaLocation="http://sumo.dlr.de/xsd/neteditConfiguration.xsd">

    <input>
        <sumo-net-file value="C:\Users\kriehl\Desktop\esslingen_sumo\network_v2.net.xml"/>
    </input>

    <output>
        <output-file value="C:\Users\kriehl\Desktop\esslingen_sumo\network_v2.net.xml"/>
        <output.street-names value="true"/>
    </output>

    <processing>
        <geometry.min-radius.fix.railways value="false"/>
        <geometry.max-grade.fix value="false"/>
        <offset.disable-normalization value="true"/>
        <lefthand value="0"/>
    </processing>

    <junctions>
        <no-turnarounds value="true"/>
        <junctions.corner-detail value="5"/>
        <junctions.limit-turn-speed value="5.50"/>
        <rectangular-lane-cut value="0"/>
    </junctions>

    <pedestrian>
        <walkingareas value="0"/>
    </pedestrian>

</configuration>
-->

<net version="1.16" junctionCornerDetail="5" limitTurnSpeed="5.50" xmlns:xsi="http://www.w3.org/2001/XMLSchema-instance" xsi:noNamespaceSchemaLocation="http://sumo.dlr.de/xsd/net_file.xsd">

    <location netOffset="-523057.66,-5396240.58" convBoundary="841.28,1030.87,2197.83,1924.66" origBoundary="9.313579,48.718529,9.391231,48.740657" projParameter="+proj=utm +zone=32 +ellps=WGS84 +datum=WGS84 +units=m +no_defs"/>

    <type id="highway.cycleway" priority="1" numLanes="1" speed="5.56" allow="bicycle" oneway="0" width="2.00"/>
    <type id="highway.footway" priority="1" numLanes="1" speed="2.78" allow="pedestrian" oneway="1" width="2.00"/>
    <type id="highway.living_street" priority="2" numLanes="1" speed="2.78" disallow="tram rail_urban rail rail_electric rail_fast ship" oneway="0"/>
    <type id="highway.path" priority="1" numLanes="1" speed="5.56" allow="pedestrian bicycle" oneway="0" width="2.00"/>
    <type id="highway.pedestrian" priority="1" numLanes="1" speed="2.78" allow="pedestrian" oneway="1" width="2.00"/>
    <type id="highway.residential" priority="3" numLanes="1" speed="13.89" disallow="tram rail_urban rail rail_electric rail_fast ship" oneway="0"/>
    <type id="highway.secondary" priority="11" numLanes="1" speed="27.78" disallow="tram rail_urban rail rail_electric rail_fast ship" oneway="0"/>
    <type id="highway.secondary_link" priority="6" numLanes="1" speed="22.22" disallow="tram rail_urban rail rail_electric rail_fast ship" oneway="0"/>
    <type id="highway.service" priority="1" numLanes="1" speed="5.56" allow="pedestrian delivery bicycle" oneway="0"/>
    <type id="highway.steps" priority="1" numLanes="1" speed="1.39" allow="pedestrian" oneway="1" width="2.00"/>
    <type id="highway.tertiary" priority="10" numLanes="1" speed="22.22" disallow="tram rail_urban rail rail_electric rail_fast ship" oneway="0"/>
    <type id="highway.tertiary_link" priority="5" numLanes="1" speed="22.22" disallow="tram rail_urban rail rail_electric rail_fast ship" oneway="0"/>
    <type id="highway.track" priority="1" numLanes="1" speed="5.56" allow="pedestrian motorcycle moped bicycle" oneway="0"/>
    <type id="highway.unclassified" priority="4" numLanes="1" speed="13.89" disallow="tram rail_urban rail rail_electric rail_fast ship" oneway="0"/>

    <edge id=":10223034340_0" function="internal">
        <lane id=":10223034340_0_0" index="0" disallow="tram rail_urban rail rail_electric rail_fast ship" speed="8.33" length="4.41" shape="1897.77,1661.76 1896.57,1661.25 1895.73,1660.92 1894.88,1660.65 1893.63,1660.28"/>
    </edge>
    <edge id=":10223034340_1" function="internal">
        <lane id=":10223034340_1_0" index="0" disallow="tram rail_urban rail rail_electric rail_fast ship" speed="8.33" length="4.80" shape="1894.51,1657.20 1895.88,1657.60 1896.81,1657.91 1897.72,1658.26 1899.03,1658.82"/>
    </edge>
    <edge id=":10223052676_0" function="internal">
        <lane id=":10223052676_0_0" index="0" disallow="tram rail_urban rail rail_electric rail_fast ship" speed="8.33" length="5.10" shape="1854.45,1654.75 1849.35,1654.77"/>
    </edge>
    <edge id=":10223052676_1" function="internal">
        <lane id=":10223052676_1_0" index="0" disallow="tram rail_urban rail rail_electric rail_fast ship" speed="8.33" length="5.31" shape="1849.23,1651.58 1854.54,1651.56"/>
    </edge>
    <edge id=":10223052684_0" function="internal">
        <lane id=":10223052684_0_0" index="0" disallow="tram rail_urban rail rail_electric rail_fast ship" speed="8.33" length="4.56" shape="1915.12,1670.59 1913.98,1669.87 1913.18,1669.39 1912.37,1668.94 1911.17,1668.33"/>
    </edge>
    <edge id=":10223052684_1" function="internal">
        <lane id=":10223052684_1_0" index="0" disallow="tram rail_urban rail rail_electric rail_fast ship" speed="8.33" length="4.86" shape="1912.62,1665.47 1913.90,1666.13 1914.77,1666.61 1915.61,1667.12 1916.83,1667.88"/>
    </edge>
    <edge id=":10223056994_0" function="internal">
        <lane id=":10223056994_0_0" index="0" disallow="tram rail_urban rail rail_electric rail_fast ship" speed="8.33" length="5.00" shape="1698.58,1821.45 1695.85,1825.64"/>
    </edge>
    <edge id=":10223056994_1" function="internal">
        <lane id=":10223056994_1_0" index="0" disallow="tram rail_urban rail rail_electric rail_fast ship" speed="8.33" length="4.98" shape="1693.17,1823.89 1695.89,1819.71"/>
    </edge>
    <edge id=":10223073653_0" function="internal">
        <lane id=":10223073653_0_0" index="0" disallow="tram rail_urban rail rail_electric rail_fast ship" speed="8.33" length="4.95" shape="1930.12,1885.83 1925.49,1884.08"/>
    </edge>
    <edge id=":10223073653_1" function="internal">
        <lane id=":10223073653_1_0" index="0" disallow="tram rail_urban rail rail_electric rail_fast ship" speed="8.33" length="5.00" shape="1926.60,1881.07 1931.27,1882.84"/>
    </edge>
    <edge id=":10223073657_0" function="internal">
        <lane id=":10223073657_0_0" index="0" disallow="tram rail_urban rail rail_electric rail_fast ship" speed="8.33" length="5.02" shape="1955.00,1787.92 1950.03,1787.16"/>
    </edge>
    <edge id=":10223073657_1" function="internal">
        <lane id=":10223073657_1_0" index="0" disallow="tram rail_urban rail rail_electric rail_fast ship" speed="8.33" length="5.06" shape="1950.49,1784.00 1955.50,1784.76"/>
    </edge>
    <edge id=":10223073659_0" function="internal">
        <lane id=":10223073659_0_0" index="0" disallow="tram rail_urban rail rail_electric rail_fast ship" speed="8.33" length="5.53" shape="1969.90,1900.61 1964.64,1898.90"/>
    </edge>
    <edge id=":10223073659_1" function="internal">
        <lane id=":10223073659_1_0" index="0" disallow="tram rail_urban rail rail_electric rail_fast ship" speed="8.33" length="5.25" shape="1965.71,1895.89 1970.71,1897.51"/>
    </edge>
    <edge id=":1036023893_0" function="internal">
        <lane id=":1036023893_0_0" index="0" allow="pedestrian bicycle" speed="6.95" length="2.40" width="2.00" shape="1492.17,1566.29 1491.55,1566.61 1491.20,1566.96 1490.86,1567.34 1490.27,1567.72"/>
    </edge>
    <edge id=":1036023893_1" function="internal">
        <lane id=":1036023893_1_0" index="0" allow="pedestrian bicycle" speed="6.95" length="2.67" width="2.00" shape="1488.90,1564.83 1489.64,1564.58 1490.19,1564.57 1490.75,1564.57 1491.51,1564.40"/>
    </edge>
    <edge id=":1036023893_2" function="internal">
        <lane id=":1036023893_2_0" index="0" disallow="tram rail_urban rail rail_electric rail_fast ship" speed="3.65" length="1.24" shape="1488.90,1564.83 1490.13,1565.01"/>
    </edge>
    <edge id=":1036023893_3" function="internal">
        <lane id=":1036023893_3_0" index="0" disallow="tram rail_urban rail rail_electric rail_fast ship" speed="3.65" length="3.43" shape="1490.13,1565.01 1490.33,1565.03 1491.03,1565.59 1491.02,1566.48 1490.27,1567.72"/>
    </edge>
    <edge id=":10805404408_0" function="internal">
        <lane id=":10805404408_0_0" index="0" allow="pedestrian delivery bicycle" speed="5.56" length="5.08" shape="1753.02,1264.54 1751.45,1259.70"/>
    </edge>
    <edge id=":10805404408_1" function="internal">
        <lane id=":10805404408_1_0" index="0" allow="pedestrian delivery bicycle" speed="3.65" length="4.67" shape="1753.02,1264.54 1753.45,1263.16 1754.10,1262.55 1754.98,1262.70 1756.09,1263.63"/>
    </edge>
    <edge id=":10805404408_2" function="internal">
        <lane id=":10805404408_2_0" index="0" allow="pedestrian delivery bicycle" speed="5.56" length="5.25" shape="1754.47,1258.64 1756.09,1263.63"/>
    </edge>
    <edge id=":10805404408_3" function="internal">
        <lane id=":10805404408_3_0" index="0" allow="pedestrian delivery bicycle" speed="3.65" length="4.67" shape="1754.47,1258.64 1754.12,1260.04 1753.50,1260.68 1752.61,1260.57 1751.45,1259.70"/>
    </edge>
    <edge id=":10814786374_0" function="internal">
        <lane id=":10814786374_0_0" index="0" allow="pedestrian delivery bicycle" speed="3.65" length="4.67" shape="1986.26,1547.95 1986.98,1549.19 1986.98,1550.09 1986.27,1550.63 1984.84,1550.81"/>
    </edge>
    <edge id=":10814792344_0" function="internal">
        <lane id=":10814792344_0_0" index="0" disallow="tram rail_urban rail rail_electric rail_fast ship" speed="13.89" length="4.78" shape="2050.49,1709.06 2046.49,1706.45"/>
    </edge>
    <edge id=":10814792344_1" function="internal">
        <lane id=":10814792344_1_0" index="0" disallow="tram rail_urban rail rail_electric rail_fast ship" speed="13.89" length="4.57" shape="2048.34,1703.84 2052.17,1706.34"/>
    </edge>
    <edge id=":10814792345_0" function="internal">
        <lane id=":10814792345_0_0" index="0" allow="private pedestrian passenger taxi delivery bicycle evehicle" speed="5.56" length="15.58" shape="2058.66,1697.76 2054.11,1693.95 2050.37,1691.57 2047.46,1690.62 2045.36,1691.11"/>
    </edge>
    <edge id=":10814792345_1" function="internal">
        <lane id=":10814792345_1_0" index="0" allow="private pedestrian passenger taxi delivery bicycle evehicle" speed="3.65" length="1.44" shape="2058.66,1697.76 2058.31,1696.36"/>
    </edge>
    <edge id=":10814792345_4" function="internal">
        <lane id=":10814792345_4_0" index="0" allow="private pedestrian passenger taxi delivery bicycle evehicle" speed="3.65" length="3.23" shape="2058.31,1696.36 2058.56,1695.50 2059.39,1695.17 2060.82,1695.39"/>
    </edge>
    <edge id=":10814792345_2" function="internal">
        <lane id=":10814792345_2_0" index="0" allow="private pedestrian passenger taxi delivery bicycle evehicle" speed="5.56" length="16.22" shape="2047.20,1687.18 2049.50,1687.44 2052.54,1688.90 2056.31,1691.55 2060.82,1695.39"/>
    </edge>
    <edge id=":10814792345_3" function="internal">
        <lane id=":10814792345_3_0" index="0" allow="private pedestrian passenger taxi delivery bicycle evehicle" speed="4.33" length="1.62" shape="2047.20,1687.18 2048.04,1688.56"/>
    </edge>
    <edge id=":10814792345_5" function="internal">
        <lane id=":10814792345_5_0" index="0" allow="private pedestrian passenger taxi delivery bicycle evehicle" speed="4.33" length="4.72" shape="2048.04,1688.56 2048.22,1688.85 2048.25,1690.06 2047.30,1690.81 2045.36,1691.11"/>
    </edge>
    <edge id=":10814792349_0" function="internal">
        <lane id=":10814792349_0_0" index="0" disallow="tram rail_urban rail rail_electric rail_fast ship" speed="5.84" length="9.50" shape="2026.13,1714.66 2024.12,1712.55 2022.24,1711.87 2020.50,1712.62 2018.90,1714.79"/>
    </edge>
    <edge id=":10814792349_1" function="internal">
        <lane id=":10814792349_1_0" index="0" disallow="tram rail_urban rail rail_electric rail_fast ship" speed="9.60" length="13.29" shape="2026.13,1714.66 2023.51,1710.73 2021.89,1707.42 2021.27,1704.72 2021.65,1702.65"/>
    </edge>
    <edge id=":10814792349_2" function="internal">
        <lane id=":10814792349_2_0" index="0" disallow="tram rail_urban rail rail_electric rail_fast ship" speed="3.65" length="4.67" shape="2026.13,1714.66 2026.06,1713.22 2026.47,1712.43 2027.35,1712.28 2028.70,1712.77"/>
    </edge>
    <edge id=":10814792349_3" function="internal">
        <lane id=":10814792349_3_0" index="0" disallow="tram rail_urban rail rail_electric rail_fast ship" speed="7.47" length="7.79" shape="2027.38,1705.49 2026.85,1707.17 2026.90,1708.95 2027.52,1710.81 2028.70,1712.77"/>
    </edge>
    <edge id=":10814792349_4" function="internal">
        <lane id=":10814792349_4_0" index="0" disallow="tram rail_urban rail rail_electric rail_fast ship" speed="13.89" length="12.70" shape="2027.38,1705.49 2025.21,1708.70 2022.97,1710.60 2020.82,1712.27 2018.90,1714.79"/>
    </edge>
    <edge id=":10814792349_5" function="internal">
        <lane id=":10814792349_5_0" index="0" disallow="tram rail_urban rail rail_electric rail_fast ship" speed="3.65" length="1.44" shape="2024.51,1704.07 2023.26,1704.79"/>
    </edge>
    <edge id=":10814792349_10" function="internal">
        <lane id=":10814792349_10_0" index="0" disallow="tram rail_urban rail rail_electric rail_fast ship" speed="3.65" length="3.23" shape="2023.26,1704.79 2022.37,1704.79 2021.83,1704.08 2021.65,1702.65"/>
    </edge>
    <edge id=":10814792349_6" function="internal">
        <lane id=":10814792349_6_0" index="0" disallow="tram rail_urban rail rail_electric rail_fast ship" speed="13.89" length="12.23" shape="2016.07,1713.28 2017.10,1710.32 2017.28,1707.68 2017.53,1704.82 2018.78,1701.23"/>
        <lane id=":10814792349_6_1" index="1" disallow="tram rail_urban rail rail_electric rail_fast ship" speed="13.89" length="12.23" shape="2016.07,1713.28 2021.65,1702.65"/>
    </edge>
    <edge id=":10814792349_8" function="internal">
        <lane id=":10814792349_8_0" index="0" disallow="tram rail_urban rail rail_electric rail_fast ship" speed="7.51" length="7.61" shape="2016.07,1713.28 2018.92,1709.40 2021.47,1708.25"/>
    </edge>
    <edge id=":10814792349_9" function="internal">
        <lane id=":10814792349_9_0" index="0" disallow="tram rail_urban rail rail_electric rail_fast ship" speed="3.65" length="1.44" shape="2016.07,1713.28 2017.35,1712.60"/>
    </edge>
    <edge id=":10814792349_11" function="internal">
        <lane id=":10814792349_11_0" index="0" disallow="tram rail_urban rail rail_electric rail_fast ship" speed="7.51" length="9.01" shape="2021.47,1708.25 2021.97,1708.02 2025.23,1709.15 2028.70,1712.77"/>
    </edge>
    <edge id=":10814792349_12" function="internal">
        <lane id=":10814792349_12_0" index="0" disallow="tram rail_urban rail rail_electric rail_fast ship" speed="3.65" length="3.23" shape="2017.35,1712.60 2018.24,1712.62 2018.76,1713.35 2018.90,1714.79"/>
    </edge>
    <edge id=":10828119451_0" function="internal">
        <lane id=":10828119451_0_0" index="0" disallow="tram rail_urban rail rail_electric rail_fast ship" speed="13.89" length="6.57" shape="1330.07,1201.93 1326.50,1207.32"/>
        <lane id=":10828119451_0_1" index="1" disallow="tram rail_urban rail rail_electric rail_fast ship" speed="13.89" length="6.57" shape="1327.51,1200.00 1323.82,1205.57"/>
    </edge>
    <edge id=":10828119451_2" function="internal">
        <lane id=":10828119451_2_0" index="0" disallow="tram rail_urban rail rail_electric rail_fast ship" speed="3.65" length="1.44" shape="1327.51,1200.00 1326.15,1200.48"/>
    </edge>
    <edge id=":10828119451_7" function="internal">
        <lane id=":10828119451_7_0" index="0" disallow="tram rail_urban rail rail_electric rail_fast ship" speed="3.65" length="3.23" shape="1326.15,1200.48 1325.27,1200.31 1324.88,1199.51 1324.96,1198.07"/>
    </edge>
    <edge id=":10828119451_3" function="internal">
        <lane id=":10828119451_3_0" index="0" disallow="tram rail_urban rail rail_electric rail_fast ship" speed="7.49" length="6.43" shape="1318.90,1199.59 1321.09,1199.54 1322.83,1199.27 1324.12,1198.78 1324.96,1198.07"/>
    </edge>
    <edge id=":10828119451_4" function="internal">
        <lane id=":10828119451_4_0" index="0" disallow="tram rail_urban rail rail_electric rail_fast ship" speed="5.97" length="10.57" shape="1318.90,1199.59 1322.47,1200.04 1324.47,1201.19 1324.92,1203.03 1323.82,1205.57"/>
    </edge>
    <edge id=":10828119451_5" function="internal">
        <lane id=":10828119451_5_0" index="0" disallow="tram rail_urban rail rail_electric rail_fast ship" speed="13.89" length="6.91" shape="1321.14,1203.83 1324.96,1198.07"/>
    </edge>
    <edge id=":10828119451_6" function="internal">
        <lane id=":10828119451_6_0" index="0" disallow="tram rail_urban rail rail_electric rail_fast ship" speed="3.65" length="1.44" shape="1321.14,1203.83 1322.46,1203.26"/>
    </edge>
    <edge id=":10828119451_8" function="internal">
        <lane id=":10828119451_8_0" index="0" disallow="tram rail_urban rail rail_electric rail_fast ship" speed="3.65" length="3.23" shape="1322.46,1203.26 1323.35,1203.36 1323.81,1204.13 1323.82,1205.57"/>
    </edge>
    <edge id=":10874227092_0" function="internal">
        <lane id=":10874227092_0_0" index="0" disallow="tram rail_urban rail rail_electric rail_fast ship" speed="13.89" length="8.00" shape="1438.93,1079.26 1433.49,1085.13"/>
    </edge>
    <edge id=":10874227092_1" function="internal">
        <lane id=":10874227092_1_0" index="0" disallow="tram rail_urban rail rail_electric rail_fast ship" speed="13.89" length="8.40" shape="1431.15,1082.96 1432.45,1080.81 1432.69,1078.94 1432.93,1077.06 1434.23,1074.91"/>
        <lane id=":10874227092_1_1" index="1" disallow="tram rail_urban rail rail_electric rail_fast ship" speed="13.89" length="8.40" shape="1431.15,1082.96 1436.58,1077.09"/>
    </edge>
    <edge id=":10874227094_0" function="internal">
        <lane id=":10874227094_0_0" index="0" disallow="tram rail_urban rail rail_electric rail_fast ship" speed="13.89" length="8.41" shape="1380.15,1141.83 1378.82,1143.97 1378.56,1145.85 1378.29,1147.73 1376.94,1149.85"/>
        <lane id=":10874227094_0_1" index="1" disallow="tram rail_urban rail rail_electric rail_fast ship" speed="13.89" length="8.41" shape="1380.15,1141.83 1374.63,1147.63"/>
    </edge>
    <edge id=":10874227094_2" function="internal">
        <lane id=":10874227094_2_0" index="0" disallow="tram rail_urban rail rail_electric rail_fast ship" speed="13.89" length="7.97" shape="1372.33,1145.41 1377.82,1139.64"/>
    </edge>
    <edge id=":10947641380_0" function="internal">
        <lane id=":10947641380_0_0" index="0" allow="bicycle" speed="5.56" length="5.19" width="2.00" shape="1553.69,1148.50 1555.12,1149.04 1556.04,1149.55 1556.92,1150.14 1558.25,1150.92"/>
    </edge>
    <edge id=":10947641402_0" function="internal">
        <lane id=":10947641402_0_0" index="0" allow="bicycle" speed="5.56" length="5.16" width="2.00" shape="1555.36,1156.95 1554.01,1156.22 1553.06,1155.77 1552.09,1155.38 1550.65,1154.86"/>
    </edge>
    <edge id=":10947641421_0" function="internal">
        <lane id=":10947641421_0_0" index="0" allow="bicycle" speed="5.56" length="5.14" width="2.00" shape="1729.19,1211.46 1727.82,1212.12 1726.87,1212.56 1725.89,1212.92 1724.44,1213.38"/>
    </edge>
    <edge id=":10961937694_0" function="internal">
        <lane id=":10961937694_0_0" index="0" disallow="tram rail_urban rail rail_electric rail_fast ship" speed="8.33" length="6.29" shape="1560.30,1123.20 1558.68,1124.11 1557.65,1124.87 1556.75,1125.80 1555.54,1127.22"/>
    </edge>
    <edge id=":10961937694_1" function="internal">
        <lane id=":10961937694_1_0" index="0" disallow="tram rail_urban rail rail_electric rail_fast ship" speed="3.65" length="4.67" shape="1560.30,1123.20 1558.86,1123.05 1558.14,1122.53 1558.12,1121.63 1558.81,1120.37"/>
    </edge>
    <edge id=":10961937694_2" function="internal">
        <lane id=":10961937694_2_0" index="0" disallow="tram rail_urban rail rail_electric rail_fast ship" speed="8.33" length="6.51" shape="1553.46,1124.02 1555.14,1123.11 1556.17,1122.26 1557.18,1121.39 1558.81,1120.37"/>
    </edge>
    <edge id=":10961937694_3" function="internal">
        <lane id=":10961937694_3_0" index="0" disallow="tram rail_urban rail rail_electric rail_fast ship" speed="5.08" length="9.49" shape="1553.46,1124.02 1556.52,1122.92 1557.89,1123.08 1557.56,1124.52 1555.54,1127.22"/>
    </edge>
    <edge id=":10961937695_0" function="internal">
        <lane id=":10961937695_0_0" index="0" allow="bicycle" speed="6.95" length="9.27" width="2.00" shape="1517.17,1148.72 1519.65,1147.58 1521.28,1146.57 1522.59,1145.21 1524.17,1142.98"/>
    </edge>
    <edge id=":10961937695_1" function="internal">
        <lane id=":10961937695_1_0" index="0" allow="bicycle" speed="5.56" length="10.10" width="2.00" shape="1517.17,1148.72 1519.92,1147.57 1521.88,1146.94 1523.91,1146.55 1526.87,1146.10"/>
    </edge>
    <edge id=":10961937695_2" function="internal">
        <lane id=":10961937695_2_0" index="0" disallow="tram rail_urban rail rail_electric rail_fast ship" speed="8.33" length="5.90" shape="1521.39,1148.22 1524.66,1143.31"/>
    </edge>
    <edge id=":10961937695_3" function="internal">
        <lane id=":10961937695_3_0" index="0" allow="bicycle" speed="6.95" length="5.70" width="2.00" shape="1521.89,1148.55 1522.67,1147.70 1523.75,1147.00 1525.15,1146.47 1526.87,1146.10"/>
    </edge>
    <edge id=":10961937696_0" function="internal">
        <lane id=":10961937696_0_0" index="0" disallow="tram rail_urban rail rail_electric rail_fast ship" speed="8.33" length="5.86" shape="1546.59,1127.30 1551.85,1124.73"/>
    </edge>
    <edge id=":10961937698_0" function="internal">
        <lane id=":10961937698_0_0" index="0" allow="bicycle" speed="4.70" length="4.05" width="2.00" shape="1549.05,1144.39 1548.92,1145.52 1549.15,1146.42 1549.75,1147.11 1550.72,1147.58"/>
    </edge>
    <edge id=":10961937698_1" function="internal">
        <lane id=":10961937698_1_0" index="0" disallow="tram rail_urban rail rail_electric rail_fast ship" speed="8.33" length="1.77" shape="1548.47,1144.24 1547.97,1145.94"/>
    </edge>
    <edge id=":10961937698_2" function="internal">
        <lane id=":10961937698_2_0" index="0" allow="bicycle" speed="5.56" length="6.26" width="2.00" shape="1544.70,1145.88 1550.72,1147.58"/>
    </edge>
    <edge id=":10961937698_3" function="internal">
        <lane id=":10961937698_3_0" index="0" allow="bicycle" speed="4.28" length="3.85" width="2.00" shape="1544.70,1145.88 1548.54,1146.11"/>
    </edge>
    <edge id=":10961937699_0" function="internal">
        <lane id=":10961937699_0_0" index="0" disallow="tram rail_urban rail rail_electric rail_fast ship" speed="8.33" length="8.33" shape="1536.00,1133.41 1543.15,1129.15"/>
    </edge>
    <edge id=":10961937699_1" function="internal">
        <lane id=":10961937699_1_0" index="0" disallow="tram rail_urban rail rail_electric rail_fast ship" speed="8.14" length="7.75" shape="1539.92,1135.92 1540.38,1133.47 1541.07,1131.52 1542.00,1130.08 1543.15,1129.15"/>
    </edge>
    <edge id=":10961937700_0" function="internal">
        <lane id=":10961937700_0_0" index="0" allow="bicycle" speed="4.82" length="4.38" width="2.00" shape="1535.50,1144.96 1536.68,1144.80 1537.57,1144.31 1538.17,1143.51 1538.48,1142.38"/>
    </edge>
    <edge id=":10961937700_1" function="internal">
        <lane id=":10961937700_1_0" index="0" allow="bicycle" speed="5.56" length="6.36" width="2.00" shape="1535.50,1144.96 1537.39,1144.96 1538.68,1145.00 1539.97,1145.10 1541.84,1145.32"/>
    </edge>
    <edge id=":10961937700_2" function="internal">
        <lane id=":10961937700_2_0" index="0" disallow="tram rail_urban rail rail_electric rail_fast ship" speed="8.33" length="2.40" shape="1538.78,1144.84 1539.08,1142.46"/>
    </edge>
    <edge id=":10961937700_3" function="internal">
        <lane id=":10961937700_3_0" index="0" allow="bicycle" speed="4.04" length="2.79" width="2.00" shape="1539.37,1144.92 1539.67,1144.55 1540.29,1144.70 1541.06,1145.07 1541.84,1145.32"/>
    </edge>
    <edge id=":1165953435_0" function="internal">
        <lane id=":1165953435_0_0" index="0" disallow="tram rail_urban rail rail_electric rail_fast ship" speed="11.11" length="1.26" shape="1331.52,1232.23 1331.32,1232.10 1331.24,1231.95 1331.17,1231.78 1331.05,1231.57"/>
        <lane id=":1165953435_0_1" index="1" disallow="tram rail_urban rail rail_electric rail_fast ship" speed="11.11" length="1.26" shape="1332.89,1229.34 1333.58,1229.61"/>
        <lane id=":1165953435_0_2" index="2" disallow="tram rail_urban rail rail_electric rail_fast ship" speed="7.92" length="1.26" shape="1334.27,1226.45 1336.11,1227.66"/>
    </edge>
    <edge id=":1165953435_3" function="internal">
        <lane id=":1165953435_3_0" index="0" disallow="tram rail_urban rail rail_electric rail_fast ship" speed="11.11" length="0.17" shape="1335.49,1223.48 1335.53,1223.51 1335.56,1223.52 1335.59,1223.54 1335.64,1223.56"/>
    </edge>
    <edge id=":12011856776_0" function="internal">
        <lane id=":12011856776_0_0" index="0" disallow="tram rail_urban rail rail_electric rail_fast ship" speed="3.65" length="4.67" shape="1784.53,1670.30 1783.08,1670.32 1782.30,1669.88 1782.18,1669.00 1782.72,1667.66"/>
    </edge>
    <edge id=":12014256941_0" function="internal">
        <lane id=":12014256941_0_0" index="0" allow="pedestrian delivery bicycle" speed="3.65" length="4.67" shape="933.61,1558.15 933.47,1556.72 933.84,1555.90 934.72,1555.71 936.09,1556.14"/>
    </edge>
    <edge id=":1469586956_0" function="internal">
        <lane id=":1469586956_0_0" index="0" disallow="tram rail_urban rail rail_electric rail_fast ship" speed="8.33" length="3.50" shape="1370.78,1573.45 1371.33,1574.26 1371.39,1575.03 1371.45,1575.81 1372.00,1576.60"/>
    </edge>
    <edge id=":1469586956_1" function="internal">
        <lane id=":1469586956_1_0" index="0" disallow="tram rail_urban rail rail_electric rail_fast ship" speed="3.65" length="4.67" shape="1370.78,1573.45 1371.16,1574.84 1370.94,1575.71 1370.11,1576.05 1368.68,1575.87"/>
    </edge>
    <edge id=":1624604845_0" function="internal">
        <lane id=":1624604845_0_0" index="0" disallow="tram rail_urban rail rail_electric rail_fast ship" speed="8.33" length="5.11" shape="1983.11,1562.94 1978.74,1560.28"/>
    </edge>
    <edge id=":1624604845_1" function="internal">
        <lane id=":1624604845_1_0" index="0" disallow="tram rail_urban rail rail_electric rail_fast ship" speed="8.33" length="5.33" shape="1980.30,1557.49 1984.85,1560.26"/>
    </edge>
    <edge id=":1624604903_0" function="internal">
        <lane id=":1624604903_0_0" index="0" disallow="tram rail_urban rail rail_electric rail_fast ship" speed="3.65" length="4.67" shape="2036.19,1601.63 2036.42,1603.05 2036.10,1603.89 2035.25,1604.14 2033.84,1603.80"/>
    </edge>
    <edge id=":1722569856_0" function="internal">
        <lane id=":1722569856_0_0" index="0" disallow="tram rail_urban rail rail_electric rail_fast ship" speed="8.33" length="5.64" shape="1903.12,1435.70 1897.48,1435.65"/>
    </edge>
    <edge id=":1722569856_1" function="internal">
        <lane id=":1722569856_1_0" index="0" disallow="tram rail_urban rail rail_electric rail_fast ship" speed="8.33" length="5.76" shape="1897.48,1432.45 1903.24,1432.51"/>
    </edge>
    <edge id=":1934095618_0" function="internal">
        <lane id=":1934095618_0_0" index="0" disallow="tram rail_urban rail rail_electric rail_fast ship" speed="13.89" length="5.87" shape="1297.25,1207.97 1299.08,1207.56 1300.35,1207.31 1301.63,1207.22 1303.49,1207.28"/>
        <lane id=":1934095618_0_1" index="1" disallow="tram rail_urban rail rail_electric rail_fast ship" speed="13.89" length="5.87" shape="1297.91,1211.10 1299.49,1210.74 1300.58,1210.52 1301.67,1210.42 1303.28,1210.47"/>
    </edge>
    <edge id=":1934095620_0" function="internal">
        <lane id=":1934095620_0_0" index="0" disallow="tram rail_urban rail rail_electric rail_fast ship" speed="13.89" length="8.03" shape="1076.39,1277.62 1078.56,1276.59 1079.91,1275.56 1081.27,1274.57 1083.49,1273.67"/>
        <lane id=":1934095620_0_1" index="1" disallow="tram rail_urban rail rail_electric rail_fast ship" speed="13.89" length="8.03" shape="1077.45,1280.64 1079.57,1279.63 1080.88,1278.61 1082.21,1277.63 1084.37,1276.75"/>
        <lane id=":1934095620_0_2" index="2" disallow="tram rail_urban rail rail_electric rail_fast ship" speed="13.89" length="8.03" shape="1077.45,1280.64 1079.70,1280.11 1081.33,1280.15 1082.97,1280.23 1085.26,1279.82"/>
    </edge>
    <edge id=":1934095628_0" function="internal">
        <lane id=":1934095628_0_0" index="0" disallow="tram rail_urban rail rail_electric rail_fast ship" speed="13.89" length="6.45" shape="1257.71,1213.39 1263.94,1211.70"/>
    </edge>
    <edge id=":1934095628_1" function="internal">
        <lane id=":1934095628_1_0" index="0" disallow="tram rail_urban rail rail_electric rail_fast ship" speed="13.89" length="6.42" shape="1258.68,1216.44 1265.04,1214.86"/>
        <lane id=":1934095628_1_1" index="1" disallow="tram rail_urban rail rail_electric rail_fast ship" speed="13.89" length="6.42" shape="1259.65,1219.49 1265.74,1217.99"/>
    </edge>
    <edge id=":1934100215_0" function="internal">
        <lane id=":1934100215_0_0" index="0" disallow="tram rail_urban rail rail_electric rail_fast ship" speed="13.89" length="6.00" shape="1298.95,1201.24 1300.68,1200.82 1301.88,1200.58 1303.09,1200.43 1304.86,1200.30"/>
    </edge>
    <edge id=":1934100648_0" function="internal">
        <lane id=":1934100648_0_0" index="0" disallow="tram rail_urban rail rail_electric rail_fast ship" speed="13.89" length="5.49" shape="1300.53,1230.36 1301.59,1228.99 1302.36,1228.09 1303.22,1227.27 1304.54,1226.14"/>
        <lane id=":1934100648_0_1" index="1" disallow="tram rail_urban rail rail_electric rail_fast ship" speed="13.89" length="5.49" shape="1303.08,1232.30 1304.01,1231.09 1304.69,1230.30 1305.45,1229.58 1306.60,1228.58"/>
    </edge>