<?xml version="1.0" encoding="UTF-8"?>

<!-- generated on 2024-09-20 10:03:05 by Eclipse SUMO netedit Version 1.19.0
<configuration xmlns:xsi="http://www.w3.org/2001/XMLSchema-instance" xsi:noNamespaceSchemaLocation="http://sumo.dlr.de/xsd/neteditConfiguration.xsd">

    <input>
        <additional-files value="C:\Users\kriehl\Documents\GitHub\eth_microsimulation_traffic\Lecture04\sumo_example_sensor_logging\SensorElements.add.xml"/>
        <sumo-net-file value="C:\Users\kriehl\Documents\GitHub\eth_microsimulation_traffic\Lecture04\sumo_example_sensor_logging\Network.net.xml"/>
    </input>

    <output>
        <output-file value="C:\Users\kriehl\Documents\GitHub\eth_microsimulation_traffic\Lecture04\sumo_example_sensor_logging\Network.net.xml"/>
    </output>

    <processing>
        <geometry.min-radius.fix.railways value="false"/>
        <geometry.max-grade.fix value="false"/>
        <offset.disable-normalization value="true"/>
        <lefthand value="0"/>
    </processing>

    <junctions>
        <no-turnarounds value="true"/>
        <junctions.corner-detail value="5"/>
        <junctions.limit-turn-speed value="5.50"/>
        <rectangular-lane-cut value="0"/>
    </junctions>

    <pedestrian>
        <walkingareas value="0"/>
    </pedestrian>

</configuration>
-->

<net version="1.16" junctionCornerDetail="5" limitTurnSpeed="5.50" xmlns:xsi="http://www.w3.org/2001/XMLSchema-instance" xsi:noNamespaceSchemaLocation="http://sumo.dlr.de/xsd/net_file.xsd">

    <location netOffset="0.00,0.00" convBoundary="0.00,0.00,200.00,200.00" origBoundary="-10000000000.00,-10000000000.00,10000000000.00,10000000000.00" projParameter="!"/>

    <edge id=":J0_0" function="internal">
        <lane id=":J0_0_0" index="0" speed="3.90" length="2.58" shape="1.60,196.80 1.70,197.50 2.00,198.00 2.50,198.30 3.20,198.40"/>
    </edge>
    <edge id=":J1_0" function="internal">
        <lane id=":J1_0_0" index="0" speed="7.33" length="2.51" shape="104.00,201.60 101.55,201.05"/>
    </edge>
    <edge id=":J1_3" function="internal">
        <lane id=":J1_3_0" index="0" speed="7.33" length="9.21" shape="101.55,201.05 99.80,199.40 98.75,196.65 98.40,192.80"/>
    </edge>
    <edge id=":J1_1" function="internal">
        <lane id=":J1_1_0" index="0" speed="6.51" length="9.03" shape="92.80,198.40 95.25,198.05 97.00,197.00 98.05,195.25 98.40,192.80"/>
    </edge>
    <edge id=":J1_2" function="internal">
        <lane id=":J1_2_0" index="0" speed="13.89" length="11.20" shape="92.80,198.40 104.00,198.40"/>
    </edge>
    <edge id=":J2_0" function="internal">
        <lane id=":J2_0_0" index="0" speed="6.08" length="7.74" shape="201.60,196.80 201.30,198.90 200.40,200.40 198.90,201.30 196.80,201.60"/>
    </edge>
    <edge id=":J2_1" function="internal">
        <lane id=":J2_1_0" index="0" speed="3.90" length="2.58" shape="196.80,198.40 197.50,198.30 198.00,198.00 198.30,197.50 198.40,196.80"/>
    </edge>
    <edge id=":J3_0" function="internal">
        <lane id=":J3_0_0" index="0" speed="3.90" length="2.58" shape="198.40,103.20 198.30,102.50 198.00,102.00 197.50,101.70 196.80,101.60"/>
    </edge>
    <edge id=":J3_1" function="internal">
        <lane id=":J3_1_0" index="0" speed="6.08" length="7.74" shape="196.80,98.40 198.90,98.70 200.40,99.60 201.30,101.10 201.60,103.20"/>
    </edge>
    <edge id=":J4_0" function="internal">
        <lane id=":J4_0_0" index="0" speed="6.51" length="9.03" shape="98.40,107.20 98.05,104.75 97.00,103.00 95.25,101.95 92.80,101.60"/>
    </edge>
    <edge id=":J4_1" function="internal">
        <lane id=":J4_1_0" index="0" speed="13.89" length="14.40" shape="98.40,107.20 98.40,92.80"/>
    </edge>
    <edge id=":J4_2" function="internal">
        <lane id=":J4_2_0" index="0" speed="8.00" length="14.19" shape="98.40,107.20 98.95,103.35 100.60,100.60 103.35,98.95 107.20,98.40"/>
    </edge>
    <edge id=":J4_3" function="internal">
        <lane id=":J4_3_0" index="0" speed="13.89" length="14.40" shape="107.20,101.60 92.80,101.60"/>
    </edge>
    <edge id=":J4_4" function="internal">
        <lane id=":J4_4_0" index="0" speed="8.00" length="14.19" shape="107.20,101.60 103.35,101.05 100.60,99.40 98.95,96.65 98.40,92.80"/>
    </edge>
    <edge id=":J4_5" function="internal">
        <lane id=":J4_5_0" index="0" speed="6.51" length="9.03" shape="101.60,92.80 101.95,95.25 103.00,97.00 104.75,98.05 107.20,98.40"/>
    </edge>
    <edge id=":J4_6" function="internal">
        <lane id=":J4_6_0" index="0" speed="8.00" length="14.19" shape="101.60,92.80 101.05,96.65 99.40,99.40 96.65,101.05 92.80,101.60"/>
    </edge>
    <edge id=":J5_0" function="internal">
        <lane id=":J5_0_0" index="0" speed="6.51" length="9.03" shape="7.20,101.60 4.75,101.95 3.00,103.00 1.95,104.75 1.60,107.20"/>
    </edge>
    <edge id=":J5_1" function="internal">
        <lane id=":J5_1_0" index="0" speed="13.89" length="11.20" shape="1.60,96.00 1.60,107.20"/>
    </edge>
    <edge id=":J6_0" function="internal">
        <lane id=":J6_0_0" index="0" speed="6.51" length="9.03" shape="98.40,7.20 98.05,4.75 97.00,3.00 95.25,1.95 92.80,1.60"/>
    </edge>
    <edge id=":J7_0" function="internal">
        <lane id=":J7_0_0" index="0" speed="3.90" length="2.58" shape="3.20,1.60 2.50,1.70 2.00,2.00 1.70,2.50 1.60,3.20"/>
    </edge>

    <edge id="-E1" from="J2" to="J1" priority="-1">
        <lane id="-E1_0" index="0" speed="13.89" length="92.80" shape="196.80,201.60 104.00,201.60"/>
    </edge>
    <edge id="-E2" from="J3" to="J2" priority="-1">
        <lane id="-E2_0" index="0" speed="13.89" length="93.60" shape="201.60,103.20 201.60,196.80"/>
    </edge>
    <edge id="-E3" from="J4" to="J3" priority="-1">
        <lane id="-E3_0" index="0" speed="13.89" length="89.60" shape="107.20,98.40 196.80,98.40"/>
    </edge>
    <edge id="-E7" from="J6" to="J4" priority="-1">
        <lane id="-E7_0" index="0" speed="13.89" length="85.60" shape="101.60,7.20 101.60,92.80"/>
    </edge>
    <edge id="E0" from="J0" to="J1" priority="-1">
        <lane id="E0_0" index="0" speed="13.89" length="89.60" shape="3.20,198.40 92.80,198.40"/>
    </edge>
    <edge id="E1" from="J1" to="J2" priority="-1">
        <lane id="E1_0" index="0" speed="13.89" length="92.80" shape="104.00,198.40 196.80,198.40"/>
    </edge>
    <edge id="E2" from="J2" to="J3" priority="-1">
        <lane id="E2_0" index="0" speed="13.89" length="93.60" shape="198.40,196.80 198.40,103.20"/>
    </edge>
    <edge id="E3" from="J3" to="J4" priority="-1">
        <lane id="E3_0" index="0" speed="13.89" length="89.60" shape="196.80,101.60 107.20,101.60"/>
    </edge>
    <edge id="E4" from="J4" to="J5" priority="-1">
        <lane id="E4_0" index="0" speed="13.89" length="85.60" shape="92.80,101.60 7.20,101.60"/>
    </edge>
    <edge id="E5" from="J5" to="J0" priority="-1">
        <lane id="E5_0" index="0" speed="13.89" length="89.60" shape="1.60,107.20 1.60,196.80"/>
    </edge>
    <edge id="E6" from="J1" to="J4" priority="-1">
        <lane id="E6_0" index="0" speed="13.89" length="85.60" shape="98.40,192.80 98.40,107.20"/>
    </edge>
    <edge id="E7" from="J4" to="J6" priority="-1">
        <lane id="E7_0" index="0" speed="13.89" length="85.60" shape="98.40,92.80 98.40,7.20"/>
    </edge>
    <edge id="E8" from="J6" to="J7" priority="-1">
        <lane id="E8_0" index="0" speed="13.89" length="89.60" shape="92.80,1.60 3.20,1.60"/>
    </edge>
    <edge id="E9" from="J7" to="J5" priority="-1">
        <lane id="E9_0" index="0" speed="13.89" length="92.80" shape="1.60,3.20 1.60,96.00"/>
    </edge>

    <tlLogic id="J4" type="static" programID="0" offset="0">
        <phase duration="26" state="GGGrrrr"/>
        <phase duration="3"  state="yyyrrrr"/>
        <phase duration="27" state="rrrrrGG"/>
        <phase duration="3"  state="rrrrryy"/>
        <phase duration="1"  state="rrrrrrr"/>
        <phase duration="27" state="rrrGGGr"/>
        <phase duration="3"  state="rrryyyr"/>
    </tlLogic>

    <junction id="J0" type="priority" x="0.00" y="200.00" incLanes="E5_0" intLanes=":J0_0_0" shape="3.20,200.00 3.20,196.80 0.00,196.80 0.36,198.58 0.80,199.20 1.42,199.64 2.22,199.91">
        <request index="0" response="0" foes="0" cont="0"/>
    </junction>
    <junction id="J1" type="priority" x="100.00" y="200.00" incLanes="-E1_0 E0_0" intLanes=":J1_3_0 :J1_1_0 :J1_2_0" shape="104.00,203.20 104.00,196.80 101.78,196.36 101.00,195.80 100.44,195.02 100.11,194.02 100.00,192.80 96.80,192.80 96.36,195.02 95.80,195.80 95.02,196.36 94.02,196.69 92.80,196.80 92.80,200.00 95.25,200.24 97.00,200.83 99.80,202.37 101.55,202.96">
        <request index="0" response="110" foes="110" cont="1"/>
        <request index="1" response="000" foes="001" cont="0"/>
        <request index="2" response="000" foes="001" cont="0"/>
    </junction>
    <junction id="J2" type="priority" x="200.00" y="200.00" incLanes="-E2_0 E1_0" intLanes=":J2_0_0 :J2_1_0" shape="203.20,196.80 196.80,196.80 196.80,203.20 200.36,202.49 201.60,201.60 202.49,200.36 203.02,198.76">
        <request index="0" response="00" foes="00" cont="0"/>
        <request index="1" response="00" foes="00" cont="0"/>
    </junction>
    <junction id="J3" type="priority" x="200.00" y="100.00" incLanes="E2_0 -E3_0" intLanes=":J3_0_0 :J3_1_0" shape="196.80,103.20 203.20,103.20 202.49,99.64 201.60,98.40 200.36,97.51 198.76,96.98 196.80,96.80">
        <request index="0" response="00" foes="00" cont="0"/>
        <request index="1" response="00" foes="00" cont="0"/>
    </junction>
    <junction id="J4" type="traffic_light" x="100.00" y="100.00" incLanes="E6_0 E3_0 -E7_0" intLanes=":J4_0_0 :J4_1_0 :J4_2_0 :J4_3_0 :J4_4_0 :J4_5_0 :J4_6_0" shape="96.80,107.20 100.00,107.20 100.80,104.98 101.80,104.20 103.20,103.64 105.00,103.31 107.20,103.20 107.20,96.80 104.98,96.36 104.20,95.80 103.64,95.02 103.31,94.02 103.20,92.80 96.80,92.80 96.69,95.00 96.36,96.80 95.80,98.20 95.02,99.20 94.02,99.80 92.80,100.00 92.80,103.20 95.02,103.64 95.80,104.20 96.36,104.98 96.69,105.98">
        <request index="0" response="0000000" foes="1001000" cont="0"/>
        <request index="1" response="0000000" foes="1011000" cont="0"/>
        <request index="2" response="0100000" foes="1111000" cont="0"/>
        <request index="3" response="1000111" foes="1000111" cont="0"/>
        <request index="4" response="1000110" foes="1000110" cont="0"/>
        <request index="5" response="0000000" foes="0000100" cont="0"/>
        <request index="6" response="0000111" foes="0011111" cont="0"/>
    </junction>
    <junction id="J5" type="priority" x="0.00" y="100.00" incLanes="E4_0 E9_0" intLanes=":J5_0_0 :J5_1_0" shape="0.00,107.20 3.20,107.20 3.64,104.98 4.20,104.20 4.98,103.64 5.98,103.31 7.20,103.20 7.20,100.00 4.98,99.56 4.20,99.00 3.64,98.22 3.31,97.22 3.20,96.00 0.00,96.00">
        <request index="0" response="00" foes="10" cont="0"/>
        <request index="1" response="01" foes="01" cont="0"/>
    </junction>
    <junction id="J6" type="priority" x="100.00" y="0.00" incLanes="E7_0" intLanes=":J6_0_0" shape="96.80,7.20 103.20,7.20 102.91,5.00 102.04,3.20 100.60,1.80 98.58,0.80 95.98,0.20 92.80,0.00 92.80,3.20 95.02,3.64 95.80,4.20 96.36,4.98 96.69,5.98">
        <request index="0" response="0" foes="0" cont="0"/>
    </junction>
    <junction id="J7" type="priority" x="0.00" y="0.00" incLanes="E8_0" intLanes=":J7_0_0" shape="0.00,3.20 3.20,3.20 3.20,0.00 1.42,0.36 0.80,0.80 0.36,1.42 0.09,2.22">
        <request index="0" response="0" foes="0" cont="0"/>
    </junction>

    <junction id=":J1_3_0" type="internal" x="101.55" y="201.05" incLanes=":J1_0_0 E0_0" intLanes=":J1_1_0 :J1_2_0"/>

    <connection from="-E1" to="E6" fromLane="0" toLane="0" via=":J1_0_0" dir="l" state="m"/>
    <connection from="-E2" to="-E1" fromLane="0" toLane="0" via=":J2_0_0" dir="l" state="M"/>
    <connection from="-E3" to="-E2" fromLane="0" toLane="0" via=":J3_1_0" dir="l" state="M"/>
    <connection from="-E7" to="-E3" fromLane="0" toLane="0" via=":J4_5_0" tl="J4" linkIndex="5" dir="r" state="O"/>
    <connection from="-E7" to="E4" fromLane="0" toLane="0" via=":J4_6_0" tl="J4" linkIndex="6" dir="l" state="o"/>
    <connection from="E0" to="E6" fromLane="0" toLane="0" via=":J1_1_0" dir="r" state="M"/>
    <connection from="E0" to="E1" fromLane="0" toLane="0" via=":J1_2_0" dir="s" state="M"/>
    <connection from="E1" to="E2" fromLane="0" toLane="0" via=":J2_1_0" dir="r" state="M"/>
    <connection from="E2" to="E3" fromLane="0" toLane="0" via=":J3_0_0" dir="r" state="M"/>
    <connection from="E3" to="E4" fromLane="0" toLane="0" via=":J4_3_0" tl="J4" linkIndex="3" dir="s" state="o"/>
    <connection from="E3" to="E7" fromLane="0" toLane="0" via=":J4_4_0" tl="J4" linkIndex="4" dir="l" state="o"/>
    <connection from="E4" to="E5" fromLane="0" toLane="0" via=":J5_0_0" dir="r" state="M"/>
    <connection from="E5" to="E0" fromLane="0" toLane="0" via=":J0_0_0" dir="r" state="M"/>
    <connection from="E6" to="E4" fromLane="0" toLane="0" via=":J4_0_0" tl="J4" linkIndex="0" dir="r" state="O"/>
    <connection from="E6" to="E7" fromLane="0" toLane="0" via=":J4_1_0" tl="J4" linkIndex="1" dir="s" state="O"/>
    <connection from="E6" to="-E3" fromLane="0" toLane="0" via=":J4_2_0" tl="J4" linkIndex="2" dir="l" state="o"/>
    <connection from="E7" to="E8" fromLane="0" toLane="0" via=":J6_0_0" dir="r" state="M"/>
    <connection from="E8" to="E9" fromLane="0" toLane="0" via=":J7_0_0" dir="r" state="M"/>
    <connection from="E9" to="E5" fromLane="0" toLane="0" via=":J5_1_0" dir="s" state="m"/>

    <connection from=":J0_0" to="E0" fromLane="0" toLane="0" dir="r" state="M"/>
    <connection from=":J1_0" to="E6" fromLane="0" toLane="0" via=":J1_3_0" dir="l" state="m"/>
    <connection from=":J1_3" to="E6" fromLane="0" toLane="0" dir="l" state="M"/>
    <connection from=":J1_1" to="E6" fromLane="0" toLane="0" dir="r" state="M"/>
    <connection from=":J1_2" to="E1" fromLane="0" toLane="0" dir="s" state="M"/>
    <connection from=":J2_0" to="-E1" fromLane="0" toLane="0" dir="l" state="M"/>
    <connection from=":J2_1" to="E2" fromLane="0" toLane="0" dir="r" state="M"/>
    <connection from=":J3_0" to="E3" fromLane="0" toLane="0" dir="r" state="M"/>
    <connection from=":J3_1" to="-E2" fromLane="0" toLane="0" dir="l" state="M"/>
    <connection from=":J4_0" to="E4" fromLane="0" toLane="0" dir="r" state="M"/>
    <connection from=":J4_1" to="E7" fromLane="0" toLane="0" dir="s" state="M"/>
    <connection from=":J4_2" to="-E3" fromLane="0" toLane="0" dir="l" state="M"/>
    <connection from=":J4_3" to="E4" fromLane="0" toLane="0" dir="s" state="M"/>
    <connection from=":J4_4" to="E7" fromLane="0" toLane="0" dir="l" state="M"/>
    <connection from=":J4_5" to="-E3" fromLane="0" toLane="0" dir="r" state="M"/>
    <connection from=":J4_6" to="E4" fromLane="0" toLane="0" dir="l" state="M"/>
    <connection from=":J5_0" to="E5" fromLane="0" toLane="0" dir="r" state="M"/>
    <connection from=":J5_1" to="E5" fromLane="0" toLane="0" dir="s" state="M"/>
    <connection from=":J6_0" to="E8" fromLane="0" toLane="0" dir="r" state="M"/>
    <connection from=":J7_0" to="E9" fromLane="0" toLane="0" dir="r" state="M"/>

</net>
