<?xml version="1.0" encoding="UTF-8"?>

<!-- generated on 2024-09-18 21:44:34 by Eclipse SUMO netedit Version 1.19.0
<configuration xmlns:xsi="http://www.w3.org/2001/XMLSchema-instance" xsi:noNamespaceSchemaLocation="http://sumo.dlr.de/xsd/neteditConfiguration.xsd">

    <input>
        <sumo-net-file value="C:\Users\kriehl\Documents\GitHub\eth_microsimulation_traffic\Lecture03\sumo_example_network_intersection\Network.net.xml"/>
    </input>

    <output>
        <output-file value="C:\Users\kriehl\Documents\GitHub\eth_microsimulation_traffic\Lecture03\sumo_example_network_intersection\Network.net.xml"/>
    </output>

    <processing>
        <geometry.min-radius.fix.railways value="false"/>
        <geometry.max-grade.fix value="false"/>
        <offset.disable-normalization value="true"/>
        <lefthand value="0"/>
    </processing>

    <junctions>
        <no-turnarounds value="true"/>
        <junctions.corner-detail value="5"/>
        <junctions.limit-turn-speed value="5.50"/>
        <rectangular-lane-cut value="0"/>
    </junctions>

    <pedestrian>
        <walkingareas value="0"/>
    </pedestrian>

</configuration>
-->

<net version="1.16" junctionCornerDetail="5" limitTurnSpeed="5.50" xmlns:xsi="http://www.w3.org/2001/XMLSchema-instance" xsi:noNamespaceSchemaLocation="http://sumo.dlr.de/xsd/net_file.xsd">

    <location netOffset="0.00,0.00" convBoundary="-100.00,-200.00,100.00,0.00" origBoundary="-10000000000.00,-10000000000.00,10000000000.00,10000000000.00" projParameter="!"/>

    <edge id=":J8_0" function="internal">
        <lane id=":J8_0_0" index="0" disallow="pedestrian" speed="6.51" length="9.03" shape="-4.80,-89.60 -5.15,-92.05 -6.20,-93.80 -7.95,-94.85 -10.40,-95.20"/>
    </edge>
    <edge id=":J8_1" function="internal">
        <lane id=":J8_1_0" index="0" disallow="pedestrian" speed="13.89" length="20.80" shape="-4.80,-89.60 -4.80,-110.40"/>
        <lane id=":J8_1_1" index="1" disallow="pedestrian" speed="13.89" length="20.80" shape="-1.60,-89.60 -1.60,-110.40"/>
    </edge>
    <edge id=":J8_3" function="internal">
        <lane id=":J8_3_0" index="0" disallow="pedestrian" speed="9.26" length="5.01" shape="-1.60,-89.60 -0.89,-94.56"/>
    </edge>
    <edge id=":J8_16" function="internal">
        <lane id=":J8_16_0" index="0" disallow="pedestrian" speed="9.26" length="14.34" shape="-0.89,-94.56 -0.85,-94.85 1.40,-98.60 5.15,-100.85 10.40,-101.60"/>
    </edge>
    <edge id=":J8_4" function="internal">
        <lane id=":J8_4_0" index="0" disallow="pedestrian" speed="6.51" length="9.03" shape="10.40,-95.20 7.95,-94.85 6.20,-93.80 5.15,-92.05 4.80,-89.60"/>
    </edge>
    <edge id=":J8_5" function="internal">
        <lane id=":J8_5_0" index="0" disallow="pedestrian" speed="13.89" length="20.80" shape="10.40,-95.20 -10.40,-95.20"/>
        <lane id=":J8_5_1" index="1" disallow="pedestrian" speed="13.89" length="20.80" shape="10.40,-98.40 -10.40,-98.40"/>
    </edge>
    <edge id=":J8_7" function="internal">
        <lane id=":J8_7_0" index="0" disallow="pedestrian" speed="9.26" length="5.01" shape="10.40,-98.40 5.44,-99.11"/>
    </edge>
    <edge id=":J8_17" function="internal">
        <lane id=":J8_17_0" index="0" disallow="pedestrian" speed="9.26" length="14.34" shape="5.44,-99.11 5.15,-99.15 1.40,-101.40 -0.85,-105.15 -1.60,-110.40"/>
    </edge>
    <edge id=":J8_8" function="internal">
        <lane id=":J8_8_0" index="0" disallow="pedestrian" speed="6.51" length="9.03" shape="4.80,-110.40 5.15,-107.95 6.20,-106.20 7.95,-105.15 10.40,-104.80"/>
    </edge>
    <edge id=":J8_9" function="internal">
        <lane id=":J8_9_0" index="0" disallow="pedestrian" speed="13.89" length="20.80" shape="4.80,-110.40 4.80,-89.60"/>
        <lane id=":J8_9_1" index="1" disallow="pedestrian" speed="13.89" length="20.80" shape="1.60,-110.40 1.60,-89.60"/>
    </edge>
    <edge id=":J8_11" function="internal">
        <lane id=":J8_11_0" index="0" disallow="pedestrian" speed="9.26" length="5.01" shape="1.60,-110.40 0.89,-105.44"/>
    </edge>
    <edge id=":J8_18" function="internal">
        <lane id=":J8_18_0" index="0" disallow="pedestrian" speed="9.26" length="14.34" shape="0.89,-105.44 0.85,-105.15 -1.40,-101.40 -5.15,-99.15 -10.40,-98.40"/>
    </edge>
    <edge id=":J8_12" function="internal">
        <lane id=":J8_12_0" index="0" disallow="pedestrian" speed="6.51" length="9.03" shape="-10.40,-104.80 -7.95,-105.15 -6.20,-106.20 -5.15,-107.95 -4.80,-110.40"/>
    </edge>
    <edge id=":J8_13" function="internal">
        <lane id=":J8_13_0" index="0" disallow="pedestrian" speed="13.89" length="20.80" shape="-10.40,-104.80 10.40,-104.80"/>
        <lane id=":J8_13_1" index="1" disallow="pedestrian" speed="13.89" length="20.80" shape="-10.40,-101.60 10.40,-101.60"/>
    </edge>
    <edge id=":J8_15" function="internal">
        <lane id=":J8_15_0" index="0" disallow="pedestrian" speed="9.26" length="5.01" shape="-10.40,-101.60 -5.44,-100.89"/>
    </edge>
    <edge id=":J8_19" function="internal">
        <lane id=":J8_19_0" index="0" disallow="pedestrian" speed="9.26" length="14.34" shape="-5.44,-100.89 -5.15,-100.85 -1.40,-98.60 0.85,-94.85 1.60,-89.60"/>
    </edge>

    <edge id="-E5" from="J8" to="J7" priority="-1">
        <lane id="-E5_0" index="0" allow="pedestrian" speed="13.89" length="89.60" width="2.00" shape="7.40,-89.60 7.40,0.00"/>
        <lane id="-E5_1" index="1" disallow="pedestrian" speed="13.89" length="89.60" shape="4.80,-89.60 4.80,0.00"/>
        <lane id="-E5_2" index="2" disallow="pedestrian" speed="13.89" length="89.60" shape="1.60,-89.60 1.60,0.00"/>
    </edge>
    <edge id="-E6" from="J9" to="J8" priority="-1">
        <lane id="-E6_0" index="0" allow="pedestrian" speed="13.89" length="89.60" width="2.00" shape="-100.00,-107.40 -10.40,-107.40"/>
        <lane id="-E6_1" index="1" disallow="pedestrian" speed="13.89" length="89.60" shape="-100.00,-104.80 -10.40,-104.80"/>
        <lane id="-E6_2" index="2" disallow="pedestrian" speed="13.89" length="89.60" shape="-100.00,-101.60 -10.40,-101.60"/>
    </edge>
    <edge id="-E7" from="J10" to="J8" priority="-1">
        <lane id="-E7_0" index="0" allow="pedestrian" speed="13.89" length="89.60" width="2.00" shape="7.40,-200.00 7.40,-110.40"/>
        <lane id="-E7_1" index="1" disallow="pedestrian" speed="13.89" length="89.60" shape="4.80,-200.00 4.80,-110.40"/>
        <lane id="-E7_2" index="2" disallow="pedestrian" speed="13.89" length="89.60" shape="1.60,-200.00 1.60,-110.40"/>
    </edge>
    <edge id="-E8" from="J11" to="J8" priority="-1">
        <lane id="-E8_0" index="0" allow="pedestrian" speed="13.89" length="89.60" width="2.00" shape="100.00,-92.60 10.40,-92.60"/>
        <lane id="-E8_1" index="1" disallow="pedestrian" speed="13.89" length="89.60" shape="100.00,-95.20 10.40,-95.20"/>
        <lane id="-E8_2" index="2" disallow="pedestrian" speed="13.89" length="89.60" shape="100.00,-98.40 10.40,-98.40"/>
    </edge>
    <edge id="E5" from="J7" to="J8" priority="-1">
        <lane id="E5_0" index="0" allow="pedestrian" speed="13.89" length="89.60" width="2.00" shape="-7.40,0.00 -7.40,-89.60"/>
        <lane id="E5_1" index="1" disallow="pedestrian" speed="13.89" length="89.60" shape="-4.80,0.00 -4.80,-89.60"/>
        <lane id="E5_2" index="2" disallow="pedestrian" speed="13.89" length="89.60" shape="-1.60,0.00 -1.60,-89.60"/>
    </edge>
    <edge id="E6" from="J8" to="J9" priority="-1">
        <lane id="E6_0" index="0" allow="pedestrian" speed="13.89" length="89.60" width="2.00" shape="-10.40,-92.60 -100.00,-92.60"/>
        <lane id="E6_1" index="1" disallow="pedestrian" speed="13.89" length="89.60" shape="-10.40,-95.20 -100.00,-95.20"/>
        <lane id="E6_2" index="2" disallow="pedestrian" speed="13.89" length="89.60" shape="-10.40,-98.40 -100.00,-98.40"/>
    </edge>
    <edge id="E7" from="J8" to="J10" priority="-1">
        <lane id="E7_0" index="0" allow="pedestrian" speed="13.89" length="89.60" width="2.00" shape="-7.40,-110.40 -7.40,-200.00"/>
        <lane id="E7_1" index="1" disallow="pedestrian" speed="13.89" length="89.60" shape="-4.80,-110.40 -4.80,-200.00"/>
        <lane id="E7_2" index="2" disallow="pedestrian" speed="13.89" length="89.60" shape="-1.60,-110.40 -1.60,-200.00"/>
    </edge>
    <edge id="E8" from="J8" to="J11" priority="-1">
        <lane id="E8_0" index="0" allow="pedestrian" speed="13.89" length="89.60" width="2.00" shape="10.40,-107.40 100.00,-107.40"/>
        <lane id="E8_1" index="1" disallow="pedestrian" speed="13.89" length="89.60" shape="10.40,-104.80 100.00,-104.80"/>
        <lane id="E8_2" index="2" disallow="pedestrian" speed="13.89" length="89.60" shape="10.40,-101.60 100.00,-101.60"/>
    </edge>

    <tlLogic id="J8" type="static" programID="0" offset="0">
        <phase duration="42" state="GGGgrrrrGGGgrrrr"/>
        <phase duration="3"  state="yyyyrrrryyyyrrrr"/>
        <phase duration="42" state="rrrrGGGgrrrrGGGg"/>
        <phase duration="3"  state="rrrryyyyrrrryyyy"/>
    </tlLogic>

    <junction id="J10" type="dead_end" x="0.00" y="-200.00" incLanes="E7_0 E7_1 E7_2" intLanes="" shape="0.00,-200.00 -8.40,-200.00 0.00,-200.00"/>
    <junction id="J11" type="dead_end" x="100.00" y="-100.00" incLanes="E8_0 E8_1 E8_2" intLanes="" shape="100.00,-100.00 100.00,-108.40 100.00,-100.00"/>
    <junction id="J7" type="dead_end" x="0.00" y="0.00" incLanes="-E5_0 -E5_1 -E5_2" intLanes="" shape="0.00,0.00 8.40,0.00 0.00,0.00"/>
    <junction id="J8" type="traffic_light" x="0.00" y="-100.00" incLanes="E5_0 E5_1 E5_2 -E8_0 -E8_1 -E8_2 -E7_0 -E7_1 -E7_2 -E6_0 -E6_1 -E6_2" intLanes=":J8_0_0 :J8_1_0 :J8_1_1 :J8_16_0 :J8_4_0 :J8_5_0 :J8_5_1 :J8_17_0 :J8_8_0 :J8_9_0 :J8_9_1 :J8_18_0 :J8_12_0 :J8_13_0 :J8_13_1 :J8_19_0" shape="-8.40,-89.60 8.40,-89.60 8.62,-90.71 8.90,-91.10 9.29,-91.38 9.79,-91.54 10.40,-91.60 10.40,-108.40 9.29,-108.62 8.90,-108.90 8.62,-109.29 8.46,-109.79 8.40,-110.40 -8.40,-110.40 -8.62,-109.29 -8.90,-108.90 -9.29,-108.62 -9.79,-108.46 -10.40,-108.40 -10.40,-91.60 -9.29,-91.38 -8.90,-91.10 -8.62,-90.71 -8.46,-90.21">
        <request index="0"  response="0000000000000000" foes="0000000001100000" cont="0"/>
        <request index="1"  response="1000000010000000" foes="1111100011100000" cont="0"/>
        <request index="2"  response="1000000010000000" foes="1111100011100000" cont="0"/>
        <request index="3"  response="1000011010000000" foes="1110011011100000" cont="1"/>
        <request index="4"  response="0000011000000000" foes="0000011000000000" cont="0"/>
        <request index="5"  response="0000111000001111" foes="1000111000001111" cont="0"/>
        <request index="6"  response="0000111000001111" foes="1000111000001111" cont="0"/>
        <request index="7"  response="0110111000001110" foes="0110111000001110" cont="1"/>
        <request index="8"  response="0000000000000000" foes="0110000000000000" cont="0"/>
        <request index="9"  response="1000000010000000" foes="1110000011111000" cont="0"/>
        <request index="10" response="1000000010000000" foes="1110000011111000" cont="0"/>
        <request index="11" response="1000000010000110" foes="1110000011100110" cont="1"/>
        <request index="12" response="0000000000000110" foes="0000000000000110" cont="0"/>
        <request index="13" response="0000111100001110" foes="0000111110001110" cont="0"/>
        <request index="14" response="0000111100001110" foes="0000111110001110" cont="0"/>
        <request index="15" response="0000111001101110" foes="0000111001101110" cont="1"/>
    </junction>
    <junction id="J9" type="dead_end" x="-100.00" y="-100.00" incLanes="E6_0 E6_1 E6_2" intLanes="" shape="-100.00,-100.00 -100.00,-91.60 -100.00,-100.00"/>

    <junction id=":J8_16_0" type="internal" x="-0.89" y="-94.56" incLanes=":J8_3_0 -E7_1 -E7_2" intLanes=":J8_5_0 :J8_5_1 :J8_7_0 :J8_8_0 :J8_9_0 :J8_9_1 :J8_13_0 :J8_13_1 :J8_15_0"/>
    <junction id=":J8_17_0" type="internal" x="5.44" y="-99.11" incLanes=":J8_7_0 -E6_1 -E6_2" intLanes=":J8_1_0 :J8_1_1 :J8_3_0 :J8_9_0 :J8_9_1 :J8_11_0 :J8_12_0 :J8_13_0 :J8_13_1"/>
    <junction id=":J8_18_0" type="internal" x="0.89" y="-105.44" incLanes=":J8_11_0 E5_1 E5_2" intLanes=":J8_0_0 :J8_1_0 :J8_1_1 :J8_5_0 :J8_5_1 :J8_7_0 :J8_13_0 :J8_13_1 :J8_15_0"/>
    <junction id=":J8_19_0" type="internal" x="-5.44" y="-100.89" incLanes=":J8_15_0 -E8_1 -E8_2" intLanes=":J8_1_0 :J8_1_1 :J8_3_0 :J8_4_0 :J8_5_0 :J8_5_1 :J8_9_0 :J8_9_1 :J8_11_0"/>

    <connection from="-E6" to="E7" fromLane="1" toLane="1" via=":J8_12_0" tl="J8" linkIndex="12" dir="r" state="o"/>
    <connection from="-E6" to="E8" fromLane="1" toLane="1" via=":J8_13_0" tl="J8" linkIndex="13" dir="s" state="o"/>
    <connection from="-E6" to="E8" fromLane="2" toLane="2" via=":J8_13_1" tl="J8" linkIndex="14" dir="s" state="o"/>
    <connection from="-E6" to="-E5" fromLane="2" toLane="2" via=":J8_15_0" tl="J8" linkIndex="15" dir="l" state="o"/>
    <connection from="-E7" to="E8" fromLane="1" toLane="1" via=":J8_8_0" tl="J8" linkIndex="8" dir="r" state="O"/>
    <connection from="-E7" to="-E5" fromLane="1" toLane="1" via=":J8_9_0" tl="J8" linkIndex="9" dir="s" state="O"/>
    <connection from="-E7" to="-E5" fromLane="2" toLane="2" via=":J8_9_1" tl="J8" linkIndex="10" dir="s" state="O"/>
    <connection from="-E7" to="E6" fromLane="2" toLane="2" via=":J8_11_0" tl="J8" linkIndex="11" dir="l" state="o"/>
    <connection from="-E8" to="-E5" fromLane="1" toLane="1" via=":J8_4_0" tl="J8" linkIndex="4" dir="r" state="o"/>
    <connection from="-E8" to="E6" fromLane="1" toLane="1" via=":J8_5_0" tl="J8" linkIndex="5" dir="s" state="o"/>
    <connection from="-E8" to="E6" fromLane="2" toLane="2" via=":J8_5_1" tl="J8" linkIndex="6" dir="s" state="o"/>
    <connection from="-E8" to="E7" fromLane="2" toLane="2" via=":J8_7_0" tl="J8" linkIndex="7" dir="l" state="o"/>
    <connection from="E5" to="E6" fromLane="1" toLane="1" via=":J8_0_0" tl="J8" linkIndex="0" dir="r" state="O"/>
    <connection from="E5" to="E7" fromLane="1" toLane="1" via=":J8_1_0" tl="J8" linkIndex="1" dir="s" state="O"/>
    <connection from="E5" to="E7" fromLane="2" toLane="2" via=":J8_1_1" tl="J8" linkIndex="2" dir="s" state="O"/>
    <connection from="E5" to="E8" fromLane="2" toLane="2" via=":J8_3_0" tl="J8" linkIndex="3" dir="l" state="o"/>

    <connection from=":J8_0" to="E6" fromLane="0" toLane="1" dir="r" state="M"/>
    <connection from=":J8_1" to="E7" fromLane="0" toLane="1" dir="s" state="M"/>
    <connection from=":J8_1" to="E7" fromLane="1" toLane="2" dir="s" state="M"/>
    <connection from=":J8_3" to="E8" fromLane="0" toLane="2" via=":J8_16_0" dir="l" state="m"/>
    <connection from=":J8_16" to="E8" fromLane="0" toLane="2" dir="l" state="M"/>
    <connection from=":J8_4" to="-E5" fromLane="0" toLane="1" dir="r" state="M"/>
    <connection from=":J8_5" to="E6" fromLane="0" toLane="1" dir="s" state="M"/>
    <connection from=":J8_5" to="E6" fromLane="1" toLane="2" dir="s" state="M"/>
    <connection from=":J8_7" to="E7" fromLane="0" toLane="2" via=":J8_17_0" dir="l" state="m"/>
    <connection from=":J8_17" to="E7" fromLane="0" toLane="2" dir="l" state="M"/>
    <connection from=":J8_8" to="E8" fromLane="0" toLane="1" dir="r" state="M"/>
    <connection from=":J8_9" to="-E5" fromLane="0" toLane="1" dir="s" state="M"/>
    <connection from=":J8_9" to="-E5" fromLane="1" toLane="2" dir="s" state="M"/>
    <connection from=":J8_11" to="E6" fromLane="0" toLane="2" via=":J8_18_0" dir="l" state="m"/>
    <connection from=":J8_18" to="E6" fromLane="0" toLane="2" dir="l" state="M"/>
    <connection from=":J8_12" to="E7" fromLane="0" toLane="1" dir="r" state="M"/>
    <connection from=":J8_13" to="E8" fromLane="0" toLane="1" dir="s" state="M"/>
    <connection from=":J8_13" to="E8" fromLane="1" toLane="2" dir="s" state="M"/>
    <connection from=":J8_15" to="-E5" fromLane="0" toLane="2" via=":J8_19_0" dir="l" state="m"/>
    <connection from=":J8_19" to="-E5" fromLane="0" toLane="2" dir="l" state="M"/>

</net>
